%%%%%%%%%%%%%%%%%%%%%%%%%%%%%%%%%%%%%%%%%%%%%%%%%%%%%%%%%%%%%%%%%%%%%%%%%%%%%%%%%%%%%%%%%%%%%%%
%                                                                              		      %
% SU2 configuration file                                                 		      %
% Case description: NACA 2412 UnSwept & UnTapered Wing with Winglet FSI optimisation 
% Lift/Area constraint AoA=2; Span = 2   
% Author: Imran bin Ahmad Azhar								      %
% Institution: Imperial College London							      %
% File Version 7.1.0 "Blackbird"                                                  	      %
%                                                                              		      %
%%%%%%%%%%%%%%%%%%%%%%%%%%%%%%%%%%%%%%%%%%%%%%%%%%%%%%%%%%%%%%%%%%%%%%%%%%%%%%%%%%%%%%%%%%%%%%%

% ------------- DIRECT, ADJOINT, AND LINEARIZED PROBLEM DEFINITION ------------%
SOLVER = MULTIPHYSICS
DISCARD_INFILES=NO
RESTART_SOL=NO
CONFIG_LIST = (/mnt/c/users/imran/PyCharmProjects/DV/ConfigAdj3D/configFLOW.cfg, /mnt/c/users/imran/PyCharmProjects/DV/ConfigAdj3D/configFEA.cfg)
%CONFIG_LIST = (/rds/general/user/ia2017/home/MySims/UnSweptMaster/multiphysics/configFLOW.cfg, /rds/general/user/ia2017/home/MySims/UnSweptMaster/multiphysics/configFEA.cfg)
MULTIZONE_SOLVER = BLOCK_GAUSS_SEIDEL
MATH_PROBLEM= DISCRETE_ADJOINT

% ------------------------------- SOLVER CONTROL ------------------------------%
OUTER_ITER = 50

%%%%%%%%%%%%%%%%%%%%%%%
% CONVERGENCE CRITERIA
%%%%%%%%%%%%%%%%%%%%%%%

CONV_FIELD = AVG_BGS_RES[0], AVG_BGS_RES[1]
CONV_RESIDUAL_MINVAL = -9
% ------------------------- TIME-DEPENDENT SIMULATION -------------------------------%
TIME_DOMAIN = NO
% -------------------- BOUNDARY CONDITION DEFINITION --------------------------%
MARKER_ZONE_INTERFACE = (flowbound,feabound)
MARKER_FAR= (farfield)
MARKER_EULER= (flowbound,feabound)
MARKER_FLUID_LOAD= (feabound)
MARKER_CLAMPED= clamped
MARKER_SYM= (symmetry)

% --------------------- INTERPOLATION -------------------
%KIND_INTERPOLATION= RADIAL_BASIS_FUNCTION
%CONSERVATIVE_INTERPOLATION= YES
%KIND_RADIAL_BASIS_FUNCTION= THIN_PLATE_SPLINE
%RADIAL_BASIS_FUNCTION_POLYNOMIAL_TERM= YES
%RADIAL_BASIS_FUNCTION_PARAMETER= 0.05
%RADIAL_BASIS_FUNCTION_PRUNE_TOLERANCE= 1E-8

% ------------------------- INPUT/OUTPUT FILE INFORMATION --------------------------%

% --------INPUT----------
MULTIZONE_MESH = YES
MESH_FORMAT= SU2
MESH_FILENAME=NACA2412_3D_unmatched2.su2

% -------OUTPUT----------
SCREEN_OUTPUT = (OUTER_ITER, AVG_BGS_RES[0], AVG_BGS_RES[1], DEFORM_MIN_VOLUME[0], DEFORM_ITER[0])
WRT_ZONE_CONV = YES

OUTPUT_FILES = (RESTART, PARAVIEW)
SOLUTION_FILENAME=fsisteady.dat
SOLUTION_ADJ_FILENAME=fsisteady_adj.dat
RESTART_FILENAME=fsisteady_res.dat
RESTART_ADJ_FILENAME=fsisteady_adj_res.dat
VOLUME_FILENAME = fsisteadyvol
VOLUME_ADJ_FILENAME= fsiteadyvol_adj
HISTORY_OUTPUT= ITER, AERO_COEFF[0], RMS_RES[0], RMS_RES[1],AVG_BGS_RES[0],AVG_BGS_RES[1]
TABULAR_FORMAT=CSV
WRT_ZONE_HIST = YES
CONV_FILENAME= history

% Output file surface flow coefficient & adjoint (w/o extension)
SURFACE_FILENAME= surface_flow
SURFACE_ADJ_FILENAME= surface_adjoint

% ----------------------- GEOMETRY EVALUATION PARAMETERS ----------------------%
GEO_MARKER= ( flowbound )
GEO_DESCRIPTION= WING
GEO_MODE=FUNCTION % FUNCTION or GRADIENT
MARKER_MONITORING= ( flowbound )

GEO_LOCATION_STATIONS= (0, 0.4, 0.8, 1.3, 1.8)
GEO_BOUNDS= (0, 1.8)
GEO_PLOT_STATIONS= YES 
GEO_NUMBER_STATIONS= 10

%% OPTIONAL - Relaxing Computation %%%%

%BGS_RELAXATION= FIXED_PARAMETER
%STAT_RELAX_PARAMETER= 0.8

% ----------------------- DESIGN VARIABLE PARAMETERS --------------------------%
DV_KIND= FFD_SETTING
DV_MARKER= ( flowbound,feabound )
DV_PARAM= ( WING, 1, 0, 0, 0.0, 0.0, 1.0 )
DV_VALUE= 0.0

% -------------------- FREE-FORM DEFORMATION PARAMETERS -----------------------%
FFD_TOLERANCE= 1E-10
FFD_ITERATIONS= 500
%FFD_DEFINITION= (WINGLET, 1.3, 2.15, -0.1, 1, 2.15, -0.1, 0.85, 1.75, -0.1, 1.3, 1.75, -0.1, 1.3, 2.15, 0.1, 1, 2.15, 0.1, 0.85, 1.75, 0.1, 1.3, 1.75, 0.1)
FFD_DEFINITION= (WING, -0.05, -0.05, -0.1, 1.05, -0.05, -0.1, 1.05, 2.1, -0.1, -0.05, 2.1, -0.1, -0.05, -0.05, 0.1, 1.05, -0.05, 0.1, 1.05, 2.1, 0.1, -0.05, 2.1, 0.1)
%FFD_DEFINITION= (WING,-0.0403, 0, -0.04836, 0.8463, 0, -0.04836, 1.209, 1.2896, -0.04836, 0.6851, 1.2896, -0.04836, -0.0403, 0, 0.04836, 0.8463,0, 0.04836,  1.209,1.2896, 0.04836, 0.6851, 1.2896, 0.04836)
FFD_DEGREE= (8, 10, 1)
FFD_CONTINUITY=2ND_DERIVATIVE
FFD_SYMMETRY_PLANE= YES

% ------------------------ GRID DEFORMATION PARAMETERS ------------------------%
%
% Linear solver or smoother for implicit formulations (FGMRES, RESTARTED_FGMRES, BCGSTAB)
DEFORM_LINEAR_SOLVER= BCGSTAB
%
% Number of smoothing iterations for mesh deformation
DEFORM_LINEAR_SOLVER_ITER= 500
%
% Minimum residual criteria for the linear solver convergence of grid deformation
DEFORM_LINEAR_SOLVER_ERROR= 1E-14
%
% Type of element stiffness imposed for FEA mesh deformation (INVERSE_VOLUME, 
%                                          WALL_DISTANCE, CONSTANT_STIFFNESS)
DEFORM_STIFFNESS_TYPE= WALL_DISTANCE

DEFORM_NONLINEAR_ITER= 10
DEFORM_CONSOLE_OUTPUT= NO
DEFORM_LINEAR_SOLVER_PREC= ILU

% --------------------- OPTIMAL SHAPE DESIGN DEFINITION -----------------------%
OPT_OBJECTIVE= DRAG
OPT_CONSTRAINT= (LIFT > 0.1) * 0.001; (STATION1_CHORD < 1.0) * 0.1; (STATION2_CHORD < 0.95) * 0.1; (STATION3_CHORD < 0.9) * 0.1; (STATION4_CHORD < 0.85) * 0.1; (STATION5_CHORD < 0.8) * 0.1
OPT_ITERATIONS= 30
OPT_GRADIENT_FACTOR= 1E-4
OPT_RELAX_FACTOR= 1E3
OPT_ACCURACY= 1E-10
OPT_BOUND_UPPER= 1E6
OPT_BOUND_LOWER= -1E6
DEFINITION_DV= ( 26, 1.0 | flowbound, feabound | WING, 10 )
