%%%%%%%%%%%%%%%%%%%%%%%%%%%%%%%%%%%%%%%%%%%%%%%%%%%%%%%%%%%%%%%%%%%%%%%%%%%%%%%%%%%%%%%%%%%%%%%
%                                                                              		      %
% SU2 configuration file                                                 		      %
% Case description: NACA 2412 (solid internal) FSI optimisation Lift/Area constraint AoA=2    %
% Author: Imran bin Ahmad Azhar								      %
% Institution: Imperial College London							      %
% File Version 7.0.8 "Blackbird"                                                  	      %
%                                                                              		      %
%%%%%%%%%%%%%%%%%%%%%%%%%%%%%%%%%%%%%%%%%%%%%%%%%%%%%%%%%%%%%%%%%%%%%%%%%%%%%%%%%%%%%%%%%%%%%%%

% ------------- DIRECT, ADJOINT, AND LINEARIZED PROBLEM DEFINITION ------------%
SOLVER = MULTIPHYSICS
DISCARD_INFILES=NO
RESTART_SOL=NO
%CONFIG_LIST = (/mnt/c/users/imran/documents/SU2/MySims/MyTestCase/configFLOW.cfg, /mnt/c/users/imran/documents/SU2/MySims/MyTestCase/configFEA.cfg)
CONFIG_LIST = (/mnt/c/users/imran/PyCharmProjects/DV/ConfigAdjoint/configFLOW.cfg, /mnt/c/users/imran/PyCharmProjects/DV/ConfigAdjoint/configFEA.cfg)
MULTIZONE_SOLVER = BLOCK_GAUSS_SEIDEL

% ------------------------------- SOLVER CONTROL ------------------------------%
OUTER_ITER = 20
% ------------------------- TIME-DEPENDENT SIMULATION -------------------------------%
TIME_DOMAIN = NO
% -------------------- BOUNDARY CONDITION DEFINITION --------------------------%
MARKER_ZONE_INTERFACE = (flowbound,feabound)
MARKER_FAR= (farfield)
MARKER_EULER= (flowbound,feabound)
MARKER_FLUID_LOAD= feabound
MARKER_CLAMPED= clamped

%%%%%%%%%%%%%%%%%%%%%%%
% CONVERGENCE CRITERIA
%%%%%%%%%%%%%%%%%%%%%%%

CONV_FIELD = AVG_BGS_RES[0], AVG_BGS_RES[1]
CONV_RESIDUAL_MINVAL = -9

% ------------------------- INPUT/OUTPUT FILE INFORMATION --------------------------%

% --------INPUT----------
MULTIZONE_MESH = YES
MESH_FORMAT = SU2
MESH_FILENAME = NACA2412_mesh_combined.su2

% -------OUTPUT----------
SCREEN_OUTPUT = (OUTER_ITER, AVG_BGS_RES[0], AVG_BGS_RES[1], DEFORM_MIN_VOLUME[0], DEFORM_ITER[0])
WRT_ZONE_CONV = YES

OUTPUT_FILES = (RESTART, PARAVIEW)
SOLUTION_FILENAME=fsisteady.dat
SOLUTION_ADJ_FILENAME=fsisteady_adj.dat
RESTART_FILENAME=fsisteady_res.dat
RESTART_ADJ_FILENAME=fsisteady_adj_res.dat
VOLUME_FILENAME = fsisteadyvol
VOLUME_ADJ_FILENAME= fsiteadyvol_adj
HISTORY_OUTPUT= ITER, AERO_COEFF[0], RMS_RES[0], RMS_RES[1],AVG_BGS_RES[0],AVG_BGS_RES[1]
TABULAR_FORMAT=CSV
WRT_ZONE_HIST = YES
CONV_FILENAME= history

% Output file surface flow coefficient & adjoint (w/o extension)
SURFACE_FILENAME= surface_flow
SURFACE_ADJ_FILENAME= surface_adjoint

% ----------------------- GEOMETRY EVALUATION PARAMETERS ----------------------%
GEO_MARKER= ( flowbound )
GEO_DESCRIPTION=AIRFOIL
GEO_MODE=FUNCTION % FUNCTION or GRADIENT
MARKER_MONITORING= ( flowbound )

%% OPTIONAL - Relaxing Computation %%%%

BGS_RELAXATION= FIXED_PARAMETER
STAT_RELAX_PARAMETER= 0.8

% ----------------------- DESIGN VARIABLE PARAMETERS --------------------------%
DV_KIND= FFD_SETTING
% -------------------- FREE-FORM DEFORMATION PARAMETERS -----------------------%
FFD_DEFINITION= (BOX, -0.05, -0.17, 0.0, 1.05, -0.17, 0.0, 1.05, 0.17, 0.0, -0.05, 0.17, 0.0,0.0, 0.0, 0.0, 0.0, 0.0, 0.0, 0.0, 0.0, 0.0, 0.0, 0.0, 0.0)
FFD_DEGREE= (12, 2, 0)
FFD_CONTINUITY=2ND_DERIVATIVE
DV_MARKER= (flowbound,feabound,clamped)
DV_PARAM= ( BOX, 1, 0, 0, 0.0, 1.0, 0.0 )
% --------------------- OPTIMAL SHAPE DESIGN DEFINITION -----------------------%
OPT_OBJECTIVE= DRAG
OPT_CONSTRAINT= AIRFOIL_AREA > 0.0816925; LIFT > 0.5
OPT_ITERATIONS= 70
OPT_GRADIENT_FACTOR= 1E-6
OPT_ACCURACY= 1E-10
OPT_BOUND_UPPER= 1000000000
OPT_BOUND_LOWER= -1000000000
DEFINITION_DV=  ( 11, 1.0 | flowbound, feabound, clamped | BOX, 0, 0, 0, 0.0, 1.0, 0.0 ); ( 11, 1.0 | flowbound, feabound, clamped | BOX, 1, 0, 0, 0.0, 1.0, 0.0 ); ( 11, 1.0 | flowbound, feabound, clamped | BOX, 2, 0, 0, 0.0, 1.0, 0.0 ); ( 11, 1.0 | flowbound, feabound, clamped | BOX, 3, 0, 0, 0.0, 1.0, 0.0 ); ( 11, 1.0 | flowbound, feabound, clamped | BOX, 4, 0, 0, 0.0, 1.0, 0.0 ); ( 11, 1.0 | flowbound, feabound, clamped | BOX, 5, 0, 0, 0.0, 1.0, 0.0 ); ( 11, 1.0 | flowbound, feabound, clamped | BOX, 6, 0, 0, 0.0, 1.0, 0.0 ); ( 11, 1.0 | flowbound, feabound, clamped | BOX, 7, 0, 0, 0.0, 1.0, 0.0 ); ( 11, 1.0 | flowbound, feabound, clamped | BOX, 8, 0, 0, 0.0, 1.0, 0.0 ); ( 11, 1.0 | flowbound, feabound, clamped | BOX, 9, 0, 0, 0.0, 1.0, 0.0 ); ( 11, 1.0 | flowbound, feabound, clamped | BOX, 10, 0, 0, 0.0, 1.0, 0.0 ); ( 11, 1.0 | flowbound, feabound, clamped | BOX, 11, 0, 0, 0.0, 1.0, 0.0 ); ( 11, 1.0 | flowbound, feabound, clamped | BOX, 12, 0, 0, 0.0, 1.0, 0.0 ); ( 11, 1.0 | flowbound, feabound, clamped | BOX, 0, 1, 0, 0.0, 1.0, 0.0 ); ( 11, 1.0 | flowbound, feabound, clamped | BOX, 1, 1, 0, 0.0, 1.0, 0.0 ); ( 11, 1.0 | flowbound, feabound, clamped | BOX, 2, 1, 0, 0.0, 1.0, 0.0 ); ( 11, 1.0 | flowbound, feabound, clamped | BOX, 3, 1, 0, 0.0, 1.0, 0.0 ); ( 11, 1.0 | flowbound, feabound, clamped | BOX, 4, 1, 0, 0.0, 1.0, 0.0 ); ( 11, 1.0 | flowbound, feabound, clamped | BOX, 5, 1, 0, 0.0, 1.0, 0.0 ); ( 11, 1.0 | flowbound, feabound, clamped | BOX, 6, 1, 0, 0.0, 1.0, 0.0 ); ( 11, 1.0 | flowbound, feabound, clamped | BOX, 7, 1, 0, 0.0, 1.0, 0.0 ); ( 11, 1.0 | flowbound, feabound, clamped | BOX, 8, 1, 0, 0.0, 1.0, 0.0 ); ( 11, 1.0 | flowbound, feabound, clamped | BOX, 9, 1, 0, 0.0, 1.0, 0.0 ); ( 11, 1.0 | flowbound, feabound, clamped | BOX, 10, 1, 0, 0.0, 1.0, 0.0 ); ( 11, 1.0 | flowbound, feabound, clamped | BOX, 11, 1, 0, 0.0, 1.0, 0.0 ); ( 11, 1.0 | flowbound, feabound, clamped | BOX, 12, 1, 0, 0.0, 1.0, 0.0 ); ( 11, 1.0 | flowbound, feabound, clamped | BOX, 0, 2, 0, 0.0, 1.0, 0.0 ); ( 11, 1.0 | flowbound, feabound, clamped | BOX, 1, 2, 0, 0.0, 1.0, 0.0 ); ( 11, 1.0 | flowbound, feabound, clamped | BOX, 2, 2, 0, 0.0, 1.0, 0.0 ); ( 11, 1.0 | flowbound, feabound, clamped | BOX, 3, 2, 0, 0.0, 1.0, 0.0 ); ( 11, 1.0 | flowbound, feabound, clamped | BOX, 4, 2, 0, 0.0, 1.0, 0.0 ); ( 11, 1.0 | flowbound, feabound, clamped | BOX, 5, 2, 0, 0.0, 1.0, 0.0 ); ( 11, 1.0 | flowbound, feabound, clamped | BOX, 6, 2, 0, 0.0, 1.0, 0.0 ); ( 11, 1.0 | flowbound, feabound, clamped | BOX, 7, 2, 0, 0.0, 1.0, 0.0 ); ( 11, 1.0 | flowbound, feabound, clamped | BOX, 8, 2, 0, 0.0, 1.0, 0.0 ); ( 11, 1.0 | flowbound, feabound, clamped | BOX, 9, 2, 0, 0.0, 1.0, 0.0 ); ( 11, 1.0 | flowbound, feabound, clamped | BOX, 10, 2, 0, 0.0, 1.0, 0.0 ); ( 11, 1.0 | flowbound, feabound, clamped | BOX, 11, 2, 0, 0.0, 1.0, 0.0 ); ( 11, 1.0 | flowbound, feabound, clamped | BOX, 12, 2, 0, 0.0, 1.0, 0.0 )









