SOLVER= MULTIPHYSICS
DISCARD_INFILES= NO
RESTART_SOL= NO
CONFIG_LIST= (/mnt/c/users/imran/PyCharmProjects/DV/ConfigConvective3D/configFLOW.cfg, /mnt/c/users/imran/PyCharmProjects/DV/ConfigConvective3D/configFEA.cfg)
MULTIZONE_SOLVER= BLOCK_GAUSS_SEIDEL
MATH_PROBLEM= DIRECT
OUTER_ITER= 50
CONV_FIELD= AVG_BGS_RES[0], AVG_BGS_RES[1]
CONV_RESIDUAL_MINVAL= -9
TIME_DOMAIN= NO
MARKER_ZONE_INTERFACE= (flowbound,feabound)
MARKER_FAR= ( farfield )
MARKER_EULER= ( flowbound, feabound )
MARKER_FLUID_LOAD= (feabound)
MARKER_CLAMPED= clamped
MARKER_SYM= ( symmetry )
MULTIZONE_MESH= YES
MESH_FORMAT= SU2
MESH_FILENAME= NACA2412_3D_unmatched2.su2
SCREEN_OUTPUT= (OUTER_ITER, AVG_BGS_RES[0], AVG_BGS_RES[1], DEFORM_MIN_VOLUME[0], DEFORM_ITER[0])
WRT_ZONE_CONV= YES
OUTPUT_FILES= (RESTART, PARAVIEW)
SOLUTION_FILENAME= fsisteady.dat
SOLUTION_ADJ_FILENAME= fsisteady_adj.dat
RESTART_FILENAME= fsisteady_res.dat
RESTART_ADJ_FILENAME= fsisteady_adj_res.dat
VOLUME_FILENAME= fsisteadyvol
VOLUME_ADJ_FILENAME= fsiteadyvol_adj
HISTORY_OUTPUT= ITER, AERO_COEFF[0], RMS_RES[0], RMS_RES[1], AVG_BGS_RES[0], AVG_BGS_RES[1]
TABULAR_FORMAT= CSV
WRT_ZONE_HIST= YES
CONV_FILENAME= history_direct
SURFACE_FILENAME= surface_flow
SURFACE_ADJ_FILENAME= surface_adjoint
GEO_MARKER= ( flowbound )
GEO_DESCRIPTION= WING
GEO_MODE= FUNCTION % FUNCTION or GRADIENT
MARKER_MONITORING= ( flowbound )
GEO_LOCATION_STATIONS= (0, 0.4, 0.8, 1.3, 1.8)
GEO_BOUNDS= (0, 1.8)
GEO_PLOT_STATIONS= YES
GEO_NUMBER_STATIONS= 10
DV_KIND= FFD_SETTING
DV_MARKER= ( ( flowbound,feabound ) )
DV_PARAM= ( WING, 1.0, 0.0, 0.0, 0.0, 0.0, 1.0) 
DV_VALUE= 0
FFD_TOLERANCE= 1E-10
FFD_ITERATIONS= 500
FFD_DEFINITION= (WING, -0.05, -0.05, -0.1, 1.05, -0.05, -0.1, 1.05, 2.1, -0.1, -0.05, 2.1, -0.1, -0.05, -0.05, 0.1, 1.05, -0.05, 0.1, 1.05, 2.1, 0.1, -0.05, 2.1, 0.1)
FFD_DEGREE= (8, 10, 1)
FFD_CONTINUITY= 2ND_DERIVATIVE
FFD_SYMMETRY_PLANE= YES
DEFORM_LINEAR_SOLVER= BCGSTAB
DEFORM_LINEAR_SOLVER_ITER= 500
DEFORM_LINEAR_SOLVER_ERROR= 1E-14
DEFORM_STIFFNESS_TYPE= WALL_DISTANCE
DEFORM_NONLINEAR_ITER= 10
DEFORM_CONSOLE_OUTPUT= NO
DEFORM_LINEAR_SOLVER_PREC= ILU
OPT_OBJECTIVE= DRAG * 1.0 
OPT_CONSTRAINT= ( LIFT > 0.1 ) * 0.001; ( STATION1_CHORD < 1.0 ) * 0.1; ( STATION2_CHORD < 0.95 ) * 0.1; ( STATION3_CHORD < 0.9 ) * 0.1; ( STATION4_CHORD < 0.85 ) * 0.1; ( STATION5_CHORD < 0.8 ) * 0.1
OPT_ITERATIONS= 30
OPT_GRADIENT_FACTOR= 1E-4
OPT_RELAX_FACTOR= 1E3
OPT_ACCURACY= 1E-10
OPT_BOUND_UPPER= 1E6
OPT_BOUND_LOWER= -1E6
DEFINITION_DV= ( 26 , 1.0 | flowbound , feabound  | 0.0 , 10.0  )
DV_VALUE_NEW= 0
DV_VALUE_OLD= 0
OPT_COMBINE_OBJECTIVE= NO
VALUE_OBJFUNC_FILENAME= of_eval.dat
GRAD_OBJFUNC_FILENAME= of_grad.dat
AOA= 0.0
SIDESLIP_ANGLE= 0.0
MACH_NUMBER= 0.0
REYNOLDS_NUMBER= 0.0
TARGET_CL= 0.0
FREESTREAM_PRESSURE= 101325.0
FREESTREAM_TEMPERATURE= 288.15
MARKER_OUTLET= (NONE)
MULTIPOINT_WEIGHT= (1.0)
MULTIPOINT_MACH_NUMBER= (0.0)
MULTIPOINT_AOA= (0.0)
MULTIPOINT_SIDESLIP_ANGLE= (0.0)
MULTIPOINT_REYNOLDS_NUMBER= (0.0)
MULTIPOINT_TARGET_CL= (0.0)
MULTIPOINT_FREESTREAM_PRESSURE= (101325.0)
MULTIPOINT_FREESTREAM_TEMPERATURE= (288.15)
MULTIPOINT_OUTLET_VALUE= (0.0)
MULTIPOINT_MESH_FILENAME= (NACA2412_3D_unmatched2.su2)
OBJECTIVE_FUNCTION= DRAG
NUMBER_PART= 4
NZONES= 1
GRADIENT_METHOD= DISCRETE_ADJOINT
