%%%%%%%%%%%%%%%%%%%%%%%%%%%%%%%%%%%%%%%%%%%%%%%%%%%%%%%%%%%%%%%%%%%%%%%%%%%%%%%%%%%%%%%%%%%%%%%
%                                                                              		      %
% SU2 configuration file                                                 		      %
% Case description: NACA 2412 UnSwept & UnTapered Wing with Winglet FSI optimisation 
% Lift/Area constraint AoA=2; Span = 2   
% Author: Imran bin Ahmad Azhar								      %
% Institution: Imperial College London							      %
% File Version 7.1.0 "Blackbird"                                                  	      %
%                                                                              		      %
%%%%%%%%%%%%%%%%%%%%%%%%%%%%%%%%%%%%%%%%%%%%%%%%%%%%%%%%%%%%%%%%%%%%%%%%%%%%%%%%%%%%%%%%%%%%%%%

% ------------- DIRECT, ADJOINT, AND LINEARIZED PROBLEM DEFINITION ------------%
SOLVER = EULER
DISCARD_INFILES=NO
RESTART_SOL=NO
MATH_PROBLEM= DIRECT

% ------------------------- TIME-DEPENDENT SIMULATION -------------------------------%
TIME_DOMAIN = NO
% -------------------- BOUNDARY CONDITION DEFINITION --------------------------%
MARKER_FAR= (farfield)
MARKER_EULER= (flowbound)
MARKER_SYM= (symmetry)

% ------------------------ SURFACES IDENTIFICATION ----------------------------%
MARKER_PLOTTING= ( flowbound  )
MARKER_MONITORING= ( flowbound ) 
MARKER_DESIGNING= ( flowbound )

% --------------------- INTERPOLATION -------------------
%KIND_INTERPOLATION= RADIAL_BASIS_FUNCTION
%CONSERVATIVE_INTERPOLATION= YES
%KIND_RADIAL_BASIS_FUNCTION= WENDLAND_C2
%RADIAL_BASIS_FUNCTION_POLYNOMIAL_TERM= YES
%RADIAL_BASIS_FUNCTION_PARAMETER= 0.1
%RADIAL_BASIS_FUNCTION_PRUNE_TOLERANCE= 1E-8
% ------------------------- INPUT/OUTPUT FILE INFORMATION --------------------------%

% --------INPUT----------
MESH_FORMAT= SU2
MESH_FILENAME=NACA2412_3D_unmatched2.su2

% -------OUTPUT----------
WRT_ZONE_CONV = YES
SOLUTION_FILENAME=fsisteady.dat
SOLUTION_ADJ_FILENAME=fsisteady_adj.dat
RESTART_FILENAME=fsisteady_res.dat
RESTART_ADJ_FILENAME=fsisteady_adj_res.dat
VOLUME_FILENAME = fsisteadyvol
VOLUME_ADJ_FILENAME= fsiteadyvol_adj
TABULAR_FORMAT=CSV
CONV_FILENAME= history

% Output file surface flow coefficient & adjoint (w/o extension)
SURFACE_FILENAME= surface_flow
SURFACE_ADJ_FILENAME= surface_adjoint

% ----------------------- GEOMETRY EVALUATION PARAMETERS ----------------------%
GEO_MARKER= ( flowbound )
GEO_DESCRIPTION= WING
GEO_MODE=FUNCTION % FUNCTION or GRADIENT

GEO_LOCATION_STATIONS= (0, 0.4, 0.8, 1.3, 1.8)
GEO_BOUNDS= (0, 1.8)
GEO_PLOT_STATIONS= YES 
GEO_NUMBER_STATIONS= 10

%% OPTIONAL - Relaxing Computation %%%%

%BGS_RELAXATION= FIXED_PARAMETER
%STAT_RELAX_PARAMETER= 0.8

% ----------------------- DESIGN VARIABLE PARAMETERS --------------------------%
DV_KIND= FFD_SETTING
DV_MARKER= ( flowbound )
DV_PARAM= ( WING, 1, 0, 0, 0.0, 0.0, 1.0 )
DV_VALUE= 0.0

% -------------------- FREE-FORM DEFORMATION PARAMETERS -----------------------%
FFD_TOLERANCE= 1E-10
FFD_ITERATIONS= 500
%FFD_DEFINITION= (WINGLET, 1.3, 2.15, -0.1, 1, 2.15, -0.1, 0.85, 1.75, -0.1, 1.3, 1.75, -0.1, 1.3, 2.15, 0.1, 1, 2.15, 0.1, 0.85, 1.75, 0.1, 1.3, 1.75, 0.1)
FFD_DEFINITION= (WING, -0.05, -0.05, -0.1, 1.05, -0.05, -0.1, 1.05, 2.1, -0.1, -0.05, 2.1, -0.1, -0.05, -0.05, 0.1, 1.05, -0.05, 0.1, 1.05, 2.1, 0.1, -0.05, 2.1, 0.1)
%FFD_DEFINITION= (WING,-0.0403, 0, -0.04836, 0.8463, 0, -0.04836, 1.209, 1.2896, -0.04836, 0.6851, 1.2896, -0.04836, -0.0403, 0, 0.04836, 0.8463,0, 0.04836,  1.209,1.2896, 0.04836, 0.6851, 1.2896, 0.04836)
FFD_DEGREE= (8, 10, 1)
FFD_CONTINUITY=2ND_DERIVATIVE
FFD_SYMMETRY_PLANE= YES

% ------------------------ GRID DEFORMATION PARAMETERS ------------------------%
%
% Linear solver or smoother for implicit formulations (FGMRES, RESTARTED_FGMRES, BCGSTAB)
DEFORM_LINEAR_SOLVER= BCGSTAB
%
% Number of smoothing iterations for mesh deformation
DEFORM_LINEAR_SOLVER_ITER= 500
%
% Minimum residual criteria for the linear solver convergence of grid deformation
DEFORM_LINEAR_SOLVER_ERROR= 1E-14
%
% Type of element stiffness imposed for FEA mesh deformation (INVERSE_VOLUME, 
%                                          WALL_DISTANCE, CONSTANT_STIFFNESS)
DEFORM_STIFFNESS_TYPE= WALL_DISTANCE

DEFORM_NONLINEAR_ITER= 10
DEFORM_CONSOLE_OUTPUT= NO
DEFORM_LINEAR_SOLVER_PREC= ILU

% ------------- DIRECT, ADJOINT, AND LINEARIZED PROBLEM DEFINITION ------------%
KIND_TURB_MODEL= NONE

% ------------------------- INPUT/OUTPUT FILE INFORMATION ---------------------%

OUTPUT_FILES = (RESTART,RESTART_ASCII,PARAVIEW,SURFACE_PARAVIEW,SURFACE_CSV)
HISTORY_OUTPUT= ITER RMS_RES AERO_COEFF
GRAD_OBJFUNC_FILENAME= of_grad_fluid.dat
% Screen output

% ------------------------------- SOLVER CONTROL ------------------------------%
INNER_ITER= 400

% New additions
CONV_FIELD = RMS_DENSITY, RMS_ADJ_DENSITY, DRAG
CONV_RESIDUAL_MINVAL= -12

CONV_STARTITER= 10
% Number of elements to apply the criteria
CONV_CAUCHY_ELEMS= 50
%
% Epsilon to control the series convergence
CONV_CAUCHY_EPS= 1E-10

% -------------------- COMPRESSIBLE FREE-STREAM DEFINITION --------------------%
MACH_NUMBER= 0.75
AOA= 2.0
SIDESLIP_ANGLE= 0.0
INIT_OPTION= TD_CONDITIONS
FREESTREAM_OPTION= TEMPERATURE_FS
FREESTREAM_PRESSURE= 101325.0
FREESTREAM_TEMPERATURE= 288.15
REYNOLDS_LENGTH= 1.0
REF_DIMENSIONALIZATION= FREESTREAM_PRESS_EQ_ONE
%
% ---------------------- REFERENCE VALUE DEFINITION ---------------------------%
REF_ORIGIN_MOMENT_X= 0.25
REF_ORIGIN_MOMENT_Y= 0.00
REF_ORIGIN_MOMENT_Z= 0.00
REF_LENGTH= 1
REF_AREA= 0
% ---- IDEAL GAS, POLYTROPIC, VAN DER WAALS AND PENG ROBINSON CONSTANTS -------%
FLUID_MODEL= IDEAL_GAS
GAMMA_VALUE= 1.4
GAS_CONSTANT= 287.87

% ------------- COMMON PARAMETERS DEFINING THE NUMERICAL METHOD ---------------%
NUM_METHOD_GRAD= GREEN_GAUSS
CFL_NUMBER= 10.0
OBJECTIVE_FUNCTION= DRAG
% Runge-Kutta alpha coefficients
%RK_ALPHA_COEFF= ( 0.66667, 0.66667, 1.000000 )

% ------------------------ LINEAR SOLVER DEFINITION ---------------------------%
LINEAR_SOLVER= BCGSTAB
LINEAR_SOLVER_PREC= ILU
LINEAR_SOLVER_ERROR= 1E-6
LINEAR_SOLVER_ITER= 300

DISCADJ_LIN_SOLVER= BCGSTAB
DISCADJ_LIN_PREC=ILU
% -------------------------- MULTIGRID PARAMETERS -----------------------------%
MGLEVEL= 0
MGCYCLE= V_CYCLE
MG_PRE_SMOOTH= ( 1, 2, 3, 3 )
MG_POST_SMOOTH= ( 0, 0, 0, 0 )
MG_CORRECTION_SMOOTH= ( 0, 0, 0, 0 )
MG_DAMP_RESTRICTION= 0.75
MG_DAMP_PROLONGATION= 0.75
% -------------------- FLOW NUMERICAL METHOD DEFINITION -----------------------%

CONV_NUM_METHOD_FLOW= JST
TIME_DISCRE_FLOW= EULER_IMPLICIT
JST_SENSOR_COEFF= ( 0.5, 0.02 )

% ---- Upwind -----
MUSCL_FLOW= NO
ROE_KAPPA=0.5	% 0.5 default
ENTROPY_FIX_COEFF=0.001	% 0.001 default
SLOPE_LIMITER_FLOW= NONE
VENKAT_LIMITER_COEFF= 0.05	% 0.05 default


% ----------------- ADJOINT-FLOW NUMERICAL METHOD DEFINITION ------------------%
%
INCONSISTENT_DISC= YES
%
% Convective numerical method: (JST, LAX-FRIEDRICH, ROE-1ST_ORDER, 
%                               ROE-2ND_ORDER)
CONV_NUM_METHOD_ADJFLOW= JST
MUSCL_ADJFLOW= NO
SLOPE_LIMITER_ADJFLOW= NONE
%
% 2nd, and 4th order artificial dissipation coefficients
ADJ_JST_SENSOR_COEFF= ( 0.5, 0.02 )
%
% Reduction factor of the CFL coefficient in the adjoint problem
CFL_REDUCTION_ADJFLOW= 0.95
%
% Time discretization (RUNGE-KUTTA_EXPLICIT, EULER_IMPLICIT)
TIME_DISCRE_ADJFLOW= EULER_IMPLICIT

FIN_DIFF_STEP = 0.0000001
% --------------------- OPTIMAL SHAPE DESIGN DEFINITION -----------------------%
OPT_OBJECTIVE= DRAG
OPT_CONSTRAINT= ( LIFT > 0.3 ) * 0.001; (STATION1_THICKNESS > 0.04) * 0.001 ; (STATION2_THICKNESS > 0.03) * 0.001 ; (STATION3_THICKNESS > 0.02) * 0.001  ; (STATION4_THICKNESS > 0.01) * 0.001  ; (STATION5_THICKNESS > 0.005) * 0.001 
OPT_ITERATIONS= 50
OPT_GRADIENT_FACTOR= 1E-6
OPT_RELAX_FACTOR= 1E3
OPT_ACCURACY= 1E-10
OPT_BOUND_UPPER= 1E6
OPT_BOUND_LOWER= -1E6
DEFINITION_DV= ( 11, 1.0 | flowbound, feabound, clamped | WING, 0, 0, 0, 0.0, 0.0, 1.0 ); ( 11, 1.0 | flowbound, feabound, clamped | WING, 1, 0, 0, 0.0, 0.0, 1.0 ); ( 11, 1.0 | flowbound, feabound, clamped | WING, 2, 0, 0, 0.0, 0.0, 1.0 ); ( 11, 1.0 | flowbound, feabound, clamped | WING, 3, 0, 0, 0.0, 0.0, 1.0 ); ( 11, 1.0 | flowbound, feabound, clamped | WING, 4, 0, 0, 0.0, 0.0, 1.0 ); ( 11, 1.0 | flowbound, feabound, clamped | WING, 5, 0, 0, 0.0, 0.0, 1.0 ); ( 11, 1.0 | flowbound, feabound, clamped | WING, 6, 0, 0, 0.0, 0.0, 1.0 ); ( 11, 1.0 | flowbound, feabound, clamped | WING, 7, 0, 0, 0.0, 0.0, 1.0 ); ( 11, 1.0 | flowbound, feabound, clamped | WING, 8, 0, 0, 0.0, 0.0, 1.0 ); ( 11, 1.0 | flowbound, feabound, clamped | WING, 0, 1, 0, 0.0, 0.0, 1.0 ); ( 11, 1.0 | flowbound, feabound, clamped | WING, 1, 1, 0, 0.0, 0.0, 1.0 ); ( 11, 1.0 | flowbound, feabound, clamped | WING, 2, 1, 0, 0.0, 0.0, 1.0 ); ( 11, 1.0 | flowbound, feabound, clamped | WING, 3, 1, 0, 0.0, 0.0, 1.0 ); ( 11, 1.0 | flowbound, feabound, clamped | WING, 4, 1, 0, 0.0, 0.0, 1.0 ); ( 11, 1.0 | flowbound, feabound, clamped | WING, 5, 1, 0, 0.0, 0.0, 1.0 ); ( 11, 1.0 | flowbound, feabound, clamped | WING, 6, 1, 0, 0.0, 0.0, 1.0 ); ( 11, 1.0 | flowbound, feabound, clamped | WING, 7, 1, 0, 0.0, 0.0, 1.0 ); ( 11, 1.0 | flowbound, feabound, clamped | WING, 8, 1, 0, 0.0, 0.0, 1.0 ); ( 11, 1.0 | flowbound, feabound, clamped | WING, 0, 2, 0, 0.0, 0.0, 1.0 ); ( 11, 1.0 | flowbound, feabound, clamped | WING, 1, 2, 0, 0.0, 0.0, 1.0 ); ( 11, 1.0 | flowbound, feabound, clamped | WING, 2, 2, 0, 0.0, 0.0, 1.0 ); ( 11, 1.0 | flowbound, feabound, clamped | WING, 3, 2, 0, 0.0, 0.0, 1.0 ); ( 11, 1.0 | flowbound, feabound, clamped | WING, 4, 2, 0, 0.0, 0.0, 1.0 ); ( 11, 1.0 | flowbound, feabound, clamped | WING, 5, 2, 0, 0.0, 0.0, 1.0 ); ( 11, 1.0 | flowbound, feabound, clamped | WING, 6, 2, 0, 0.0, 0.0, 1.0 ); ( 11, 1.0 | flowbound, feabound, clamped | WING, 7, 2, 0, 0.0, 0.0, 1.0 ); ( 11, 1.0 | flowbound, feabound, clamped | WING, 8, 2, 0, 0.0, 0.0, 1.0 ); ( 11, 1.0 | flowbound, feabound, clamped | WING, 0, 3, 0, 0.0, 0.0, 1.0 ); ( 11, 1.0 | flowbound, feabound, clamped | WING, 1, 3, 0, 0.0, 0.0, 1.0 ); ( 11, 1.0 | flowbound, feabound, clamped | WING, 2, 3, 0, 0.0, 0.0, 1.0 ); ( 11, 1.0 | flowbound, feabound, clamped | WING, 3, 3, 0, 0.0, 0.0, 1.0 ); ( 11, 1.0 | flowbound, feabound, clamped | WING, 4, 3, 0, 0.0, 0.0, 1.0 ); ( 11, 1.0 | flowbound, feabound, clamped | WING, 5, 3, 0, 0.0, 0.0, 1.0 ); ( 11, 1.0 | flowbound, feabound, clamped | WING, 6, 3, 0, 0.0, 0.0, 1.0 ); ( 11, 1.0 | flowbound, feabound, clamped | WING, 7, 3, 0, 0.0, 0.0, 1.0 ); ( 11, 1.0 | flowbound, feabound, clamped | WING, 8, 3, 0, 0.0, 0.0, 1.0 ); ( 11, 1.0 | flowbound, feabound, clamped | WING, 0, 4, 0, 0.0, 0.0, 1.0 ); ( 11, 1.0 | flowbound, feabound, clamped | WING, 1, 4, 0, 0.0, 0.0, 1.0 ); ( 11, 1.0 | flowbound, feabound, clamped | WING, 2, 4, 0, 0.0, 0.0, 1.0 ); ( 11, 1.0 | flowbound, feabound, clamped | WING, 3, 4, 0, 0.0, 0.0, 1.0 ); ( 11, 1.0 | flowbound, feabound, clamped | WING, 4, 4, 0, 0.0, 0.0, 1.0 ); ( 11, 1.0 | flowbound, feabound, clamped | WING, 5, 4, 0, 0.0, 0.0, 1.0 ); ( 11, 1.0 | flowbound, feabound, clamped | WING, 6, 4, 0, 0.0, 0.0, 1.0 ); ( 11, 1.0 | flowbound, feabound, clamped | WING, 7, 4, 0, 0.0, 0.0, 1.0 ); ( 11, 1.0 | flowbound, feabound, clamped | WING, 8, 4, 0, 0.0, 0.0, 1.0 ); ( 11, 1.0 | flowbound, feabound, clamped | WING, 0, 5, 0, 0.0, 0.0, 1.0 ); ( 11, 1.0 | flowbound, feabound, clamped | WING, 1, 5, 0, 0.0, 0.0, 1.0 ); ( 11, 1.0 | flowbound, feabound, clamped | WING, 2, 5, 0, 0.0, 0.0, 1.0 ); ( 11, 1.0 | flowbound, feabound, clamped | WING, 3, 5, 0, 0.0, 0.0, 1.0 ); ( 11, 1.0 | flowbound, feabound, clamped | WING, 4, 5, 0, 0.0, 0.0, 1.0 ); ( 11, 1.0 | flowbound, feabound, clamped | WING, 5, 5, 0, 0.0, 0.0, 1.0 ); ( 11, 1.0 | flowbound, feabound, clamped | WING, 6, 5, 0, 0.0, 0.0, 1.0 ); ( 11, 1.0 | flowbound, feabound, clamped | WING, 7, 5, 0, 0.0, 0.0, 1.0 ); ( 11, 1.0 | flowbound, feabound, clamped | WING, 8, 5, 0, 0.0, 0.0, 1.0 ); ( 11, 1.0 | flowbound, feabound, clamped | WING, 0, 6, 0, 0.0, 0.0, 1.0 ); ( 11, 1.0 | flowbound, feabound, clamped | WING, 1, 6, 0, 0.0, 0.0, 1.0 ); ( 11, 1.0 | flowbound, feabound, clamped | WING, 2, 6, 0, 0.0, 0.0, 1.0 ); ( 11, 1.0 | flowbound, feabound, clamped | WING, 3, 6, 0, 0.0, 0.0, 1.0 ); ( 11, 1.0 | flowbound, feabound, clamped | WING, 4, 6, 0, 0.0, 0.0, 1.0 ); ( 11, 1.0 | flowbound, feabound, clamped | WING, 5, 6, 0, 0.0, 0.0, 1.0 ); ( 11, 1.0 | flowbound, feabound, clamped | WING, 6, 6, 0, 0.0, 0.0, 1.0 ); ( 11, 1.0 | flowbound, feabound, clamped | WING, 7, 6, 0, 0.0, 0.0, 1.0 ); ( 11, 1.0 | flowbound, feabound, clamped | WING, 8, 6, 0, 0.0, 0.0, 1.0 ); ( 11, 1.0 | flowbound, feabound, clamped | WING, 0, 7, 0, 0.0, 0.0, 1.0 ); ( 11, 1.0 | flowbound, feabound, clamped | WING, 1, 7, 0, 0.0, 0.0, 1.0 ); ( 11, 1.0 | flowbound, feabound, clamped | WING, 2, 7, 0, 0.0, 0.0, 1.0 ); ( 11, 1.0 | flowbound, feabound, clamped | WING, 3, 7, 0, 0.0, 0.0, 1.0 ); ( 11, 1.0 | flowbound, feabound, clamped | WING, 4, 7, 0, 0.0, 0.0, 1.0 ); ( 11, 1.0 | flowbound, feabound, clamped | WING, 5, 7, 0, 0.0, 0.0, 1.0 ); ( 11, 1.0 | flowbound, feabound, clamped | WING, 6, 7, 0, 0.0, 0.0, 1.0 ); ( 11, 1.0 | flowbound, feabound, clamped | WING, 7, 7, 0, 0.0, 0.0, 1.0 ); ( 11, 1.0 | flowbound, feabound, clamped | WING, 8, 7, 0, 0.0, 0.0, 1.0 ); ( 11, 1.0 | flowbound, feabound, clamped | WING, 0, 8, 0, 0.0, 0.0, 1.0 ); ( 11, 1.0 | flowbound, feabound, clamped | WING, 1, 8, 0, 0.0, 0.0, 1.0 ); ( 11, 1.0 | flowbound, feabound, clamped | WING, 2, 8, 0, 0.0, 0.0, 1.0 ); ( 11, 1.0 | flowbound, feabound, clamped | WING, 3, 8, 0, 0.0, 0.0, 1.0 ); ( 11, 1.0 | flowbound, feabound, clamped | WING, 4, 8, 0, 0.0, 0.0, 1.0 ); ( 11, 1.0 | flowbound, feabound, clamped | WING, 5, 8, 0, 0.0, 0.0, 1.0 ); ( 11, 1.0 | flowbound, feabound, clamped | WING, 6, 8, 0, 0.0, 0.0, 1.0 ); ( 11, 1.0 | flowbound, feabound, clamped | WING, 7, 8, 0, 0.0, 0.0, 1.0 ); ( 11, 1.0 | flowbound, feabound, clamped | WING, 8, 8, 0, 0.0, 0.0, 1.0 ); ( 11, 1.0 | flowbound, feabound, clamped | WING, 0, 9, 0, 0.0, 0.0, 1.0 ); ( 11, 1.0 | flowbound, feabound, clamped | WING, 1, 9, 0, 0.0, 0.0, 1.0 ); ( 11, 1.0 | flowbound, feabound, clamped | WING, 2, 9, 0, 0.0, 0.0, 1.0 ); ( 11, 1.0 | flowbound, feabound, clamped | WING, 3, 9, 0, 0.0, 0.0, 1.0 ); ( 11, 1.0 | flowbound, feabound, clamped | WING, 4, 9, 0, 0.0, 0.0, 1.0 ); ( 11, 1.0 | flowbound, feabound, clamped | WING, 5, 9, 0, 0.0, 0.0, 1.0 ); ( 11, 1.0 | flowbound, feabound, clamped | WING, 6, 9, 0, 0.0, 0.0, 1.0 ); ( 11, 1.0 | flowbound, feabound, clamped | WING, 7, 9, 0, 0.0, 0.0, 1.0 ); ( 11, 1.0 | flowbound, feabound, clamped | WING, 8, 9, 0, 0.0, 0.0, 1.0 ); ( 11, 1.0 | flowbound, feabound, clamped | WING, 0, 10, 0, 0.0, 0.0, 1.0 ); ( 11, 1.0 | flowbound, feabound, clamped | WING, 1, 10, 0, 0.0, 0.0, 1.0 ); ( 11, 1.0 | flowbound, feabound, clamped | WING, 2, 10, 0, 0.0, 0.0, 1.0 ); ( 11, 1.0 | flowbound, feabound, clamped | WING, 3, 10, 0, 0.0, 0.0, 1.0 ); ( 11, 1.0 | flowbound, feabound, clamped | WING, 4, 10, 0, 0.0, 0.0, 1.0 ); ( 11, 1.0 | flowbound, feabound, clamped | WING, 5, 10, 0, 0.0, 0.0, 1.0 ); ( 11, 1.0 | flowbound, feabound, clamped | WING, 6, 10, 0, 0.0, 0.0, 1.0 ); ( 11, 1.0 | flowbound, feabound, clamped | WING, 7, 10, 0, 0.0, 0.0, 1.0 ); ( 11, 1.0 | flowbound, feabound, clamped | WING, 8, 10, 0, 0.0, 0.0, 1.0 ); ( 11, 1.0 | flowbound, feabound, clamped | WING, 0, 0, 1, 0.0, 0.0, 1.0 ); ( 11, 1.0 | flowbound, feabound, clamped | WING, 1, 0, 1, 0.0, 0.0, 1.0 ); ( 11, 1.0 | flowbound, feabound, clamped | WING, 2, 0, 1, 0.0, 0.0, 1.0 ); ( 11, 1.0 | flowbound, feabound, clamped | WING, 3, 0, 1, 0.0, 0.0, 1.0 ); ( 11, 1.0 | flowbound, feabound, clamped | WING, 4, 0, 1, 0.0, 0.0, 1.0 ); ( 11, 1.0 | flowbound, feabound, clamped | WING, 5, 0, 1, 0.0, 0.0, 1.0 ); ( 11, 1.0 | flowbound, feabound, clamped | WING, 6, 0, 1, 0.0, 0.0, 1.0 ); ( 11, 1.0 | flowbound, feabound, clamped | WING, 7, 0, 1, 0.0, 0.0, 1.0 ); ( 11, 1.0 | flowbound, feabound, clamped | WING, 8, 0, 1, 0.0, 0.0, 1.0 ); ( 11, 1.0 | flowbound, feabound, clamped | WING, 0, 1, 1, 0.0, 0.0, 1.0 ); ( 11, 1.0 | flowbound, feabound, clamped | WING, 1, 1, 1, 0.0, 0.0, 1.0 ); ( 11, 1.0 | flowbound, feabound, clamped | WING, 2, 1, 1, 0.0, 0.0, 1.0 ); ( 11, 1.0 | flowbound, feabound, clamped | WING, 3, 1, 1, 0.0, 0.0, 1.0 ); ( 11, 1.0 | flowbound, feabound, clamped | WING, 4, 1, 1, 0.0, 0.0, 1.0 ); ( 11, 1.0 | flowbound, feabound, clamped | WING, 5, 1, 1, 0.0, 0.0, 1.0 ); ( 11, 1.0 | flowbound, feabound, clamped | WING, 6, 1, 1, 0.0, 0.0, 1.0 ); ( 11, 1.0 | flowbound, feabound, clamped | WING, 7, 1, 1, 0.0, 0.0, 1.0 ); ( 11, 1.0 | flowbound, feabound, clamped | WING, 8, 1, 1, 0.0, 0.0, 1.0 ); ( 11, 1.0 | flowbound, feabound, clamped | WING, 0, 2, 1, 0.0, 0.0, 1.0 ); ( 11, 1.0 | flowbound, feabound, clamped | WING, 1, 2, 1, 0.0, 0.0, 1.0 ); ( 11, 1.0 | flowbound, feabound, clamped | WING, 2, 2, 1, 0.0, 0.0, 1.0 ); ( 11, 1.0 | flowbound, feabound, clamped | WING, 3, 2, 1, 0.0, 0.0, 1.0 ); ( 11, 1.0 | flowbound, feabound, clamped | WING, 4, 2, 1, 0.0, 0.0, 1.0 ); ( 11, 1.0 | flowbound, feabound, clamped | WING, 5, 2, 1, 0.0, 0.0, 1.0 ); ( 11, 1.0 | flowbound, feabound, clamped | WING, 6, 2, 1, 0.0, 0.0, 1.0 ); ( 11, 1.0 | flowbound, feabound, clamped | WING, 7, 2, 1, 0.0, 0.0, 1.0 ); ( 11, 1.0 | flowbound, feabound, clamped | WING, 8, 2, 1, 0.0, 0.0, 1.0 ); ( 11, 1.0 | flowbound, feabound, clamped | WING, 0, 3, 1, 0.0, 0.0, 1.0 ); ( 11, 1.0 | flowbound, feabound, clamped | WING, 1, 3, 1, 0.0, 0.0, 1.0 ); ( 11, 1.0 | flowbound, feabound, clamped | WING, 2, 3, 1, 0.0, 0.0, 1.0 ); ( 11, 1.0 | flowbound, feabound, clamped | WING, 3, 3, 1, 0.0, 0.0, 1.0 ); ( 11, 1.0 | flowbound, feabound, clamped | WING, 4, 3, 1, 0.0, 0.0, 1.0 ); ( 11, 1.0 | flowbound, feabound, clamped | WING, 5, 3, 1, 0.0, 0.0, 1.0 ); ( 11, 1.0 | flowbound, feabound, clamped | WING, 6, 3, 1, 0.0, 0.0, 1.0 ); ( 11, 1.0 | flowbound, feabound, clamped | WING, 7, 3, 1, 0.0, 0.0, 1.0 ); ( 11, 1.0 | flowbound, feabound, clamped | WING, 8, 3, 1, 0.0, 0.0, 1.0 ); ( 11, 1.0 | flowbound, feabound, clamped | WING, 0, 4, 1, 0.0, 0.0, 1.0 ); ( 11, 1.0 | flowbound, feabound, clamped | WING, 1, 4, 1, 0.0, 0.0, 1.0 ); ( 11, 1.0 | flowbound, feabound, clamped | WING, 2, 4, 1, 0.0, 0.0, 1.0 ); ( 11, 1.0 | flowbound, feabound, clamped | WING, 3, 4, 1, 0.0, 0.0, 1.0 ); ( 11, 1.0 | flowbound, feabound, clamped | WING, 4, 4, 1, 0.0, 0.0, 1.0 ); ( 11, 1.0 | flowbound, feabound, clamped | WING, 5, 4, 1, 0.0, 0.0, 1.0 ); ( 11, 1.0 | flowbound, feabound, clamped | WING, 6, 4, 1, 0.0, 0.0, 1.0 ); ( 11, 1.0 | flowbound, feabound, clamped | WING, 7, 4, 1, 0.0, 0.0, 1.0 ); ( 11, 1.0 | flowbound, feabound, clamped | WING, 8, 4, 1, 0.0, 0.0, 1.0 ); ( 11, 1.0 | flowbound, feabound, clamped | WING, 0, 5, 1, 0.0, 0.0, 1.0 ); ( 11, 1.0 | flowbound, feabound, clamped | WING, 1, 5, 1, 0.0, 0.0, 1.0 ); ( 11, 1.0 | flowbound, feabound, clamped | WING, 2, 5, 1, 0.0, 0.0, 1.0 ); ( 11, 1.0 | flowbound, feabound, clamped | WING, 3, 5, 1, 0.0, 0.0, 1.0 ); ( 11, 1.0 | flowbound, feabound, clamped | WING, 4, 5, 1, 0.0, 0.0, 1.0 ); ( 11, 1.0 | flowbound, feabound, clamped | WING, 5, 5, 1, 0.0, 0.0, 1.0 ); ( 11, 1.0 | flowbound, feabound, clamped | WING, 6, 5, 1, 0.0, 0.0, 1.0 ); ( 11, 1.0 | flowbound, feabound, clamped | WING, 7, 5, 1, 0.0, 0.0, 1.0 ); ( 11, 1.0 | flowbound, feabound, clamped | WING, 8, 5, 1, 0.0, 0.0, 1.0 ); ( 11, 1.0 | flowbound, feabound, clamped | WING, 0, 6, 1, 0.0, 0.0, 1.0 ); ( 11, 1.0 | flowbound, feabound, clamped | WING, 1, 6, 1, 0.0, 0.0, 1.0 ); ( 11, 1.0 | flowbound, feabound, clamped | WING, 2, 6, 1, 0.0, 0.0, 1.0 ); ( 11, 1.0 | flowbound, feabound, clamped | WING, 3, 6, 1, 0.0, 0.0, 1.0 ); ( 11, 1.0 | flowbound, feabound, clamped | WING, 4, 6, 1, 0.0, 0.0, 1.0 ); ( 11, 1.0 | flowbound, feabound, clamped | WING, 5, 6, 1, 0.0, 0.0, 1.0 ); ( 11, 1.0 | flowbound, feabound, clamped | WING, 6, 6, 1, 0.0, 0.0, 1.0 ); ( 11, 1.0 | flowbound, feabound, clamped | WING, 7, 6, 1, 0.0, 0.0, 1.0 ); ( 11, 1.0 | flowbound, feabound, clamped | WING, 8, 6, 1, 0.0, 0.0, 1.0 ); ( 11, 1.0 | flowbound, feabound, clamped | WING, 0, 7, 1, 0.0, 0.0, 1.0 ); ( 11, 1.0 | flowbound, feabound, clamped | WING, 1, 7, 1, 0.0, 0.0, 1.0 ); ( 11, 1.0 | flowbound, feabound, clamped | WING, 2, 7, 1, 0.0, 0.0, 1.0 ); ( 11, 1.0 | flowbound, feabound, clamped | WING, 3, 7, 1, 0.0, 0.0, 1.0 ); ( 11, 1.0 | flowbound, feabound, clamped | WING, 4, 7, 1, 0.0, 0.0, 1.0 ); ( 11, 1.0 | flowbound, feabound, clamped | WING, 5, 7, 1, 0.0, 0.0, 1.0 ); ( 11, 1.0 | flowbound, feabound, clamped | WING, 6, 7, 1, 0.0, 0.0, 1.0 ); ( 11, 1.0 | flowbound, feabound, clamped | WING, 7, 7, 1, 0.0, 0.0, 1.0 ); ( 11, 1.0 | flowbound, feabound, clamped | WING, 8, 7, 1, 0.0, 0.0, 1.0 ); ( 11, 1.0 | flowbound, feabound, clamped | WING, 0, 8, 1, 0.0, 0.0, 1.0 ); ( 11, 1.0 | flowbound, feabound, clamped | WING, 1, 8, 1, 0.0, 0.0, 1.0 ); ( 11, 1.0 | flowbound, feabound, clamped | WING, 2, 8, 1, 0.0, 0.0, 1.0 ); ( 11, 1.0 | flowbound, feabound, clamped | WING, 3, 8, 1, 0.0, 0.0, 1.0 ); ( 11, 1.0 | flowbound, feabound, clamped | WING, 4, 8, 1, 0.0, 0.0, 1.0 ); ( 11, 1.0 | flowbound, feabound, clamped | WING, 5, 8, 1, 0.0, 0.0, 1.0 ); ( 11, 1.0 | flowbound, feabound, clamped | WING, 6, 8, 1, 0.0, 0.0, 1.0 ); ( 11, 1.0 | flowbound, feabound, clamped | WING, 7, 8, 1, 0.0, 0.0, 1.0 ); ( 11, 1.0 | flowbound, feabound, clamped | WING, 8, 8, 1, 0.0, 0.0, 1.0 ); ( 11, 1.0 | flowbound, feabound, clamped | WING, 0, 9, 1, 0.0, 0.0, 1.0 ); ( 11, 1.0 | flowbound, feabound, clamped | WING, 1, 9, 1, 0.0, 0.0, 1.0 ); ( 11, 1.0 | flowbound, feabound, clamped | WING, 2, 9, 1, 0.0, 0.0, 1.0 ); ( 11, 1.0 | flowbound, feabound, clamped | WING, 3, 9, 1, 0.0, 0.0, 1.0 ); ( 11, 1.0 | flowbound, feabound, clamped | WING, 4, 9, 1, 0.0, 0.0, 1.0 ); ( 11, 1.0 | flowbound, feabound, clamped | WING, 5, 9, 1, 0.0, 0.0, 1.0 ); ( 11, 1.0 | flowbound, feabound, clamped | WING, 6, 9, 1, 0.0, 0.0, 1.0 ); ( 11, 1.0 | flowbound, feabound, clamped | WING, 7, 9, 1, 0.0, 0.0, 1.0 ); ( 11, 1.0 | flowbound, feabound, clamped | WING, 8, 9, 1, 0.0, 0.0, 1.0 ); ( 11, 1.0 | flowbound, feabound, clamped | WING, 0, 10, 1, 0.0, 0.0, 1.0 ); ( 11, 1.0 | flowbound, feabound, clamped | WING, 1, 10, 1, 0.0, 0.0, 1.0 ); ( 11, 1.0 | flowbound, feabound, clamped | WING, 2, 10, 1, 0.0, 0.0, 1.0 ); ( 11, 1.0 | flowbound, feabound, clamped | WING, 3, 10, 1, 0.0, 0.0, 1.0 ); ( 11, 1.0 | flowbound, feabound, clamped | WING, 4, 10, 1, 0.0, 0.0, 1.0 ); ( 11, 1.0 | flowbound, feabound, clamped | WING, 5, 10, 1, 0.0, 0.0, 1.0 ); ( 11, 1.0 | flowbound, feabound, clamped | WING, 6, 10, 1, 0.0, 0.0, 1.0 ); ( 11, 1.0 | flowbound, feabound, clamped | WING, 7, 10, 1, 0.0, 0.0, 1.0 ); ( 11, 1.0 | flowbound, feabound, clamped | WING, 8, 10, 1, 0.0, 0.0, 1.0 )