SOLVER= MULTIPHYSICS
DISCARD_INFILES= NO
RESTART_SOL= NO
CONFIG_LIST= (/mnt/c/users/imran/PyCharmProjects/DV/Gradients/configFLOW.cfg, /mnt/c/users/imran/PyCharmProjects/DV/Gradients/configFEA.cfg)
MULTIZONE_SOLVER= BLOCK_GAUSS_SEIDEL
OUTER_ITER= 20
TIME_DOMAIN= NO
MARKER_ZONE_INTERFACE= (flowbound,feabound)
MARKER_FAR= ( farfield )
MARKER_EULER= ( flowbound, feabound )
MARKER_FLUID_LOAD= feabound
MARKER_CLAMPED= clamped
CONV_FIELD= AVG_BGS_RES[0], AVG_BGS_RES[1]
CONV_RESIDUAL_MINVAL= -9
MULTIZONE_MESH= YES
MESH_FORMAT= SU2
MESH_FILENAME= NACA2412_mesh_combined.su2
SCREEN_OUTPUT= (OUTER_ITER, AVG_BGS_RES[0], AVG_BGS_RES[1], DEFORM_MIN_VOLUME[0], DEFORM_ITER[0])
WRT_ZONE_CONV= YES
OUTPUT_FILES= (RESTART, PARAVIEW)
SOLUTION_FILENAME= fsisteady.dat
SOLUTION_ADJ_FILENAME= fsisteady_adj.dat
RESTART_FILENAME= fsisteady_res.dat
RESTART_ADJ_FILENAME= fsisteady_adj_res.dat
VOLUME_FILENAME= fsisteadyvol
VOLUME_ADJ_FILENAME= fsiteadyvol_adj
HISTORY_OUTPUT= ITER, AERO_COEFF[0], RMS_RES[0], RMS_RES[1], AVG_BGS_RES[0], AVG_BGS_RES[1], AERO_COEFF
TABULAR_FORMAT= CSV
WRT_ZONE_HIST= YES
CONV_FILENAME= history
SURFACE_FILENAME= surface_flow
SURFACE_ADJ_FILENAME= surface_adjoint
GEO_MARKER= ( flowbound )
GEO_DESCRIPTION= AIRFOIL
GEO_MODE= FUNCTION % FUNCTION or GRADIENT
MARKER_MONITORING= ( flowbound )
BGS_RELAXATION= FIXED_PARAMETER
STAT_RELAX_PARAMETER= 0.8
DV_KIND= FFD_CONTROL_POINT, FFD_CONTROL_POINT, FFD_CONTROL_POINT, FFD_CONTROL_POINT, FFD_CONTROL_POINT, FFD_CONTROL_POINT, FFD_CONTROL_POINT, FFD_CONTROL_POINT, FFD_CONTROL_POINT, FFD_CONTROL_POINT, FFD_CONTROL_POINT, FFD_CONTROL_POINT, FFD_CONTROL_POINT, FFD_CONTROL_POINT, FFD_CONTROL_POINT, FFD_CONTROL_POINT, FFD_CONTROL_POINT, FFD_CONTROL_POINT, FFD_CONTROL_POINT, FFD_CONTROL_POINT, FFD_CONTROL_POINT, FFD_CONTROL_POINT, FFD_CONTROL_POINT, FFD_CONTROL_POINT, FFD_CONTROL_POINT, FFD_CONTROL_POINT, FFD_CONTROL_POINT, FFD_CONTROL_POINT, FFD_CONTROL_POINT, FFD_CONTROL_POINT, FFD_CONTROL_POINT, FFD_CONTROL_POINT, FFD_CONTROL_POINT, FFD_CONTROL_POINT, FFD_CONTROL_POINT, FFD_CONTROL_POINT, FFD_CONTROL_POINT, FFD_CONTROL_POINT, FFD_CONTROL_POINT
FFD_DEFINITION= (BOX, -0.05, -0.17, 0.0, 1.05, -0.17, 0.0, 1.05, 0.17, 0.0, -0.05, 0.17, 0.0,0.0, 0.0, 0.0, 0.0, 0.0, 0.0, 0.0, 0.0, 0.0, 0.0, 0.0, 0.0)
FFD_DEGREE= (12, 2, 0)
FFD_CONTINUITY= 2ND_DERIVATIVE
DV_MARKER= ( (flowbound,feabound,clamped) )
DV_PARAM= ( BOX, 0.0, 0.0, 0.0, 0.0, 1.0, 0.0) ; ( BOX, 1.0, 0.0, 0.0, 0.0, 1.0, 0.0) ; ( BOX, 2.0, 0.0, 0.0, 0.0, 1.0, 0.0) ; ( BOX, 3.0, 0.0, 0.0, 0.0, 1.0, 0.0) ; ( BOX, 4.0, 0.0, 0.0, 0.0, 1.0, 0.0) ; ( BOX, 5.0, 0.0, 0.0, 0.0, 1.0, 0.0) ; ( BOX, 6.0, 0.0, 0.0, 0.0, 1.0, 0.0) ; ( BOX, 7.0, 0.0, 0.0, 0.0, 1.0, 0.0) ; ( BOX, 8.0, 0.0, 0.0, 0.0, 1.0, 0.0) ; ( BOX, 9.0, 0.0, 0.0, 0.0, 1.0, 0.0) ; ( BOX, 10.0, 0.0, 0.0, 0.0, 1.0, 0.0) ; ( BOX, 11.0, 0.0, 0.0, 0.0, 1.0, 0.0) ; ( BOX, 12.0, 0.0, 0.0, 0.0, 1.0, 0.0) ; ( BOX, 0.0, 1.0, 0.0, 0.0, 1.0, 0.0) ; ( BOX, 1.0, 1.0, 0.0, 0.0, 1.0, 0.0) ; ( BOX, 2.0, 1.0, 0.0, 0.0, 1.0, 0.0) ; ( BOX, 3.0, 1.0, 0.0, 0.0, 1.0, 0.0) ; ( BOX, 4.0, 1.0, 0.0, 0.0, 1.0, 0.0) ; ( BOX, 5.0, 1.0, 0.0, 0.0, 1.0, 0.0) ; ( BOX, 6.0, 1.0, 0.0, 0.0, 1.0, 0.0) ; ( BOX, 7.0, 1.0, 0.0, 0.0, 1.0, 0.0) ; ( BOX, 8.0, 1.0, 0.0, 0.0, 1.0, 0.0) ; ( BOX, 9.0, 1.0, 0.0, 0.0, 1.0, 0.0) ; ( BOX, 10.0, 1.0, 0.0, 0.0, 1.0, 0.0) ; ( BOX, 11.0, 1.0, 0.0, 0.0, 1.0, 0.0) ; ( BOX, 12.0, 1.0, 0.0, 0.0, 1.0, 0.0) ; ( BOX, 0.0, 2.0, 0.0, 0.0, 1.0, 0.0) ; ( BOX, 1.0, 2.0, 0.0, 0.0, 1.0, 0.0) ; ( BOX, 2.0, 2.0, 0.0, 0.0, 1.0, 0.0) ; ( BOX, 3.0, 2.0, 0.0, 0.0, 1.0, 0.0) ; ( BOX, 4.0, 2.0, 0.0, 0.0, 1.0, 0.0) ; ( BOX, 5.0, 2.0, 0.0, 0.0, 1.0, 0.0) ; ( BOX, 6.0, 2.0, 0.0, 0.0, 1.0, 0.0) ; ( BOX, 7.0, 2.0, 0.0, 0.0, 1.0, 0.0) ; ( BOX, 8.0, 2.0, 0.0, 0.0, 1.0, 0.0) ; ( BOX, 9.0, 2.0, 0.0, 0.0, 1.0, 0.0) ; ( BOX, 10.0, 2.0, 0.0, 0.0, 1.0, 0.0) ; ( BOX, 11.0, 2.0, 0.0, 0.0, 1.0, 0.0) ; ( BOX, 12.0, 2.0, 0.0, 0.0, 1.0, 0.0) 
OPT_OBJECTIVE= DRAG * 1.0 
OPT_CONSTRAINT= ( AIRFOIL_AREA > 0.0816925 ) * 1.0; ( LIFT > 0.5 ) * 1.0
OPT_ITERATIONS= 70
OPT_GRADIENT_FACTOR= 1E-6
OPT_ACCURACY= 1E-10
OPT_BOUND_UPPER= 1000000000
OPT_BOUND_LOWER= -1000000000
DEFINITION_DV= ( 11 , 1.0 | flowbound , feabound , clamped  | BOX , 0.0 , 0.0 , 0.0 , 0.0 , 1.0 , 0.0  ); ( 11 , 1.0 | flowbound , feabound , clamped  | BOX , 1.0 , 0.0 , 0.0 , 0.0 , 1.0 , 0.0  ); ( 11 , 1.0 | flowbound , feabound , clamped  | BOX , 2.0 , 0.0 , 0.0 , 0.0 , 1.0 , 0.0  ); ( 11 , 1.0 | flowbound , feabound , clamped  | BOX , 3.0 , 0.0 , 0.0 , 0.0 , 1.0 , 0.0  ); ( 11 , 1.0 | flowbound , feabound , clamped  | BOX , 4.0 , 0.0 , 0.0 , 0.0 , 1.0 , 0.0  ); ( 11 , 1.0 | flowbound , feabound , clamped  | BOX , 5.0 , 0.0 , 0.0 , 0.0 , 1.0 , 0.0  ); ( 11 , 1.0 | flowbound , feabound , clamped  | BOX , 6.0 , 0.0 , 0.0 , 0.0 , 1.0 , 0.0  ); ( 11 , 1.0 | flowbound , feabound , clamped  | BOX , 7.0 , 0.0 , 0.0 , 0.0 , 1.0 , 0.0  ); ( 11 , 1.0 | flowbound , feabound , clamped  | BOX , 8.0 , 0.0 , 0.0 , 0.0 , 1.0 , 0.0  ); ( 11 , 1.0 | flowbound , feabound , clamped  | BOX , 9.0 , 0.0 , 0.0 , 0.0 , 1.0 , 0.0  ); ( 11 , 1.0 | flowbound , feabound , clamped  | BOX , 10.0 , 0.0 , 0.0 , 0.0 , 1.0 , 0.0  ); ( 11 , 1.0 | flowbound , feabound , clamped  | BOX , 11.0 , 0.0 , 0.0 , 0.0 , 1.0 , 0.0  ); ( 11 , 1.0 | flowbound , feabound , clamped  | BOX , 12.0 , 0.0 , 0.0 , 0.0 , 1.0 , 0.0  ); ( 11 , 1.0 | flowbound , feabound , clamped  | BOX , 0.0 , 1.0 , 0.0 , 0.0 , 1.0 , 0.0  ); ( 11 , 1.0 | flowbound , feabound , clamped  | BOX , 1.0 , 1.0 , 0.0 , 0.0 , 1.0 , 0.0  ); ( 11 , 1.0 | flowbound , feabound , clamped  | BOX , 2.0 , 1.0 , 0.0 , 0.0 , 1.0 , 0.0  ); ( 11 , 1.0 | flowbound , feabound , clamped  | BOX , 3.0 , 1.0 , 0.0 , 0.0 , 1.0 , 0.0  ); ( 11 , 1.0 | flowbound , feabound , clamped  | BOX , 4.0 , 1.0 , 0.0 , 0.0 , 1.0 , 0.0  ); ( 11 , 1.0 | flowbound , feabound , clamped  | BOX , 5.0 , 1.0 , 0.0 , 0.0 , 1.0 , 0.0  ); ( 11 , 1.0 | flowbound , feabound , clamped  | BOX , 6.0 , 1.0 , 0.0 , 0.0 , 1.0 , 0.0  ); ( 11 , 1.0 | flowbound , feabound , clamped  | BOX , 7.0 , 1.0 , 0.0 , 0.0 , 1.0 , 0.0  ); ( 11 , 1.0 | flowbound , feabound , clamped  | BOX , 8.0 , 1.0 , 0.0 , 0.0 , 1.0 , 0.0  ); ( 11 , 1.0 | flowbound , feabound , clamped  | BOX , 9.0 , 1.0 , 0.0 , 0.0 , 1.0 , 0.0  ); ( 11 , 1.0 | flowbound , feabound , clamped  | BOX , 10.0 , 1.0 , 0.0 , 0.0 , 1.0 , 0.0  ); ( 11 , 1.0 | flowbound , feabound , clamped  | BOX , 11.0 , 1.0 , 0.0 , 0.0 , 1.0 , 0.0  ); ( 11 , 1.0 | flowbound , feabound , clamped  | BOX , 12.0 , 1.0 , 0.0 , 0.0 , 1.0 , 0.0  ); ( 11 , 1.0 | flowbound , feabound , clamped  | BOX , 0.0 , 2.0 , 0.0 , 0.0 , 1.0 , 0.0  ); ( 11 , 1.0 | flowbound , feabound , clamped  | BOX , 1.0 , 2.0 , 0.0 , 0.0 , 1.0 , 0.0  ); ( 11 , 1.0 | flowbound , feabound , clamped  | BOX , 2.0 , 2.0 , 0.0 , 0.0 , 1.0 , 0.0  ); ( 11 , 1.0 | flowbound , feabound , clamped  | BOX , 3.0 , 2.0 , 0.0 , 0.0 , 1.0 , 0.0  ); ( 11 , 1.0 | flowbound , feabound , clamped  | BOX , 4.0 , 2.0 , 0.0 , 0.0 , 1.0 , 0.0  ); ( 11 , 1.0 | flowbound , feabound , clamped  | BOX , 5.0 , 2.0 , 0.0 , 0.0 , 1.0 , 0.0  ); ( 11 , 1.0 | flowbound , feabound , clamped  | BOX , 6.0 , 2.0 , 0.0 , 0.0 , 1.0 , 0.0  ); ( 11 , 1.0 | flowbound , feabound , clamped  | BOX , 7.0 , 2.0 , 0.0 , 0.0 , 1.0 , 0.0  ); ( 11 , 1.0 | flowbound , feabound , clamped  | BOX , 8.0 , 2.0 , 0.0 , 0.0 , 1.0 , 0.0  ); ( 11 , 1.0 | flowbound , feabound , clamped  | BOX , 9.0 , 2.0 , 0.0 , 0.0 , 1.0 , 0.0  ); ( 11 , 1.0 | flowbound , feabound , clamped  | BOX , 10.0 , 2.0 , 0.0 , 0.0 , 1.0 , 0.0  ); ( 11 , 1.0 | flowbound , feabound , clamped  | BOX , 11.0 , 2.0 , 0.0 , 0.0 , 1.0 , 0.0  ); ( 11 , 1.0 | flowbound , feabound , clamped  | BOX , 12.0 , 2.0 , 0.0 , 0.0 , 1.0 , 0.0  )
DV_VALUE_NEW= 0.001, 0.0, 0.0, 0.0, 0.0, 0.0, 0.0, 0.0, 0.0, 0.0, 0.0, 0.0, 0.0, 0.0, 0.0, 0.0, 0.0, 0.0, 0.0, 0.0, 0.0, 0.0, 0.0, 0.0, 0.0, 0.0, 0.0, 0.0, 0.0, 0.0, 0.0, 0.0, 0.0, 0.0, 0.0, 0.0, 0.0, 0.0, 0.0
DV_VALUE_OLD= 0.0, 0.0, 0.0, 0.0, 0.0, 0.0, 0.0, 0.0, 0.0, 0.0, 0.0, 0.0, 0.0, 0.0, 0.0, 0.0, 0.0, 0.0, 0.0, 0.0, 0.0, 0.0, 0.0, 0.0, 0.0, 0.0, 0.0, 0.0, 0.0, 0.0, 0.0, 0.0, 0.0, 0.0, 0.0, 0.0, 0.0, 0.0, 0.0
OPT_RELAX_FACTOR= 1.0
OPT_COMBINE_OBJECTIVE= NO
VALUE_OBJFUNC_FILENAME= of_eval.dat
GRAD_OBJFUNC_FILENAME= of_grad.dat
AOA= 0.0
SIDESLIP_ANGLE= 0.0
MACH_NUMBER= 0.0
REYNOLDS_NUMBER= 0.0
TARGET_CL= 0.0
FREESTREAM_PRESSURE= 101325.0
FREESTREAM_TEMPERATURE= 288.15
MARKER_OUTLET= (NONE)
MULTIPOINT_WEIGHT= (1.0)
MULTIPOINT_MACH_NUMBER= (0.0)
MULTIPOINT_AOA= (0.0)
MULTIPOINT_SIDESLIP_ANGLE= (0.0)
MULTIPOINT_REYNOLDS_NUMBER= (0.0)
MULTIPOINT_TARGET_CL= (0.0)
MULTIPOINT_FREESTREAM_PRESSURE= (101325.0)
MULTIPOINT_FREESTREAM_TEMPERATURE= (288.15)
MULTIPOINT_OUTLET_VALUE= (0.0)
MULTIPOINT_MESH_FILENAME= (NACA2412_mesh_combined.su2)
OBJECTIVE_FUNCTION= DRAG
NUMBER_PART= 1
NZONES= 2
MATH_PROBLEM= DIRECT
DV_VALUE= 0.001, 0.0, 0.0, 0.0, 0.0, 0.0, 0.0, 0.0, 0.0, 0.0, 0.0, 0.0, 0.0, 0.0, 0.0, 0.0, 0.0, 0.0, 0.0, 0.0, 0.0, 0.0, 0.0, 0.0, 0.0, 0.0, 0.0, 0.0, 0.0, 0.0, 0.0, 0.0, 0.0, 0.0, 0.0, 0.0, 0.0, 0.0, 0.0
