%%%%%%%%%%%%%%%%%%%%%%%%%%%%%%%%%%%%%%%%%%%%%%%%%%%%%%%%%%%%%%%%%%%%%%%%%%%%%%%%%%%%%%%%%%%%%%%
%                                                                              		      %
% SU2 configuration file                                                 		      %
% Case description: NACA 2412 Swept & Tapered Wing FSI optimisation Lift/Area constraint AoA=2    %
% Author: Imran bin Ahmad Azhar								      %
% Institution: Imperial College London							      %
% File Version 7.1.0 "Blackbird"                                                  	      %
%                                                                              		      %
%%%%%%%%%%%%%%%%%%%%%%%%%%%%%%%%%%%%%%%%%%%%%%%%%%%%%%%%%%%%%%%%%%%%%%%%%%%%%%%%%%%%%%%%%%%%%%%

% ------------- DIRECT, ADJOINT, AND LINEARIZED PROBLEM DEFINITION ------------%
SOLVER = MULTIPHYSICS
DISCARD_INFILES=NO
RESTART_SOL=NO
CONFIG_LIST = (/mnt/c/users/imran/PycharmProjects/DV/CFL/configFLOW.cfg, /mnt/c/users/imran/PycharmProjects/DV/CFL/configFEA.cfg)
%CONFIG_LIST = (/mnt/c/users/imran/Documents/SU2/MySims/SweptWingEdge/configFLOW.cfg, /mnt/c/users/imran/Documents/SU2/MySims/SweptWingEdge/configFEA.cfg)
%CONFIG_LIST = (/rds/general/user/ia2017/home/MySims/SweptWing/configFLOW.cfg, /rds/general/user/ia2017/home/MySims/SweptWing/configFEA.cfg)
MULTIZONE_SOLVER = BLOCK_GAUSS_SEIDEL

% ------------------------------- SOLVER CONTROL ------------------------------%
OUTER_ITER = 5
% ------------------------- TIME-DEPENDENT SIMULATION -------------------------------%
TIME_DOMAIN = NO
% -------------------- BOUNDARY CONDITION DEFINITION --------------------------%
MARKER_ZONE_INTERFACE = (flowbound,feabound)
MARKER_FAR= (farfield)
MARKER_EULER= (flowbound,feabound)
MARKER_FLUID_LOAD= feabound
MARKER_CLAMPED= clamped
MARKER_SYM= (symmetry)

% ------------------------- INPUT/OUTPUT FILE INFORMATION --------------------------%

% --------INPUT----------
MULTIZONE_MESH = YES
MESH_FORMAT= SU2
MESH_FILENAME=NACA2412_3D_combined.su2

% -------OUTPUT----------
SCREEN_OUTPUT = (OUTER_ITER, AVG_BGS_RES[0], AVG_BGS_RES[1], DEFORM_MIN_VOLUME[0], DEFORM_ITER[0])
WRT_ZONE_CONV = YES

OUTPUT_FILES = (RESTART, PARAVIEW)
SOLUTION_FILENAME=fsisteady.dat
SOLUTION_ADJ_FILENAME=fsisteady_adj.dat
RESTART_FILENAME=fsisteady_res.dat
RESTART_ADJ_FILENAME=fsisteady_adj_res.dat
VOLUME_FILENAME = fsisteadyvol
VOLUME_ADJ_FILENAME= fsiteadyvol_adj
HISTORY_OUTPUT= ITER, AERO_COEFF[0], RMS_RES[0], RMS_RES[1],AVG_BGS_RES[0],AVG_BGS_RES[1]
TABULAR_FORMAT=CSV
WRT_ZONE_HIST = YES
CONV_FILENAME= history

% Output file surface flow coefficient & adjoint (w/o extension)
SURFACE_FILENAME= surface_flow
SURFACE_ADJ_FILENAME= surface_adjoint

% ----------------------- GEOMETRY EVALUATION PARAMETERS ----------------------%
GEO_MARKER= ( flowbound )
GEO_DESCRIPTION=WING
GEO_MODE=FUNCTION % FUNCTION or GRADIENT
MARKER_MONITORING= ( flowbound )

GEO_LOCATION_STATIONS= (0.0, 0.4, 0.8, 1.2, 1.5)
GEO_BOUNDS= (0, 1.5)
GEO_PLOT_STATIONS= YES 
GEO_NUMBER_STATIONS= 25

%% OPTIONAL - Relaxing Computation %%%%

%BGS_RELAXATION= FIXED_PARAMETER
%STAT_RELAX_PARAMETER= 0.8

% ----------------------- DESIGN VARIABLE PARAMETERS --------------------------%
DV_KIND= FFD_SETTING
DV_MARKER= (flowbound,feabound,clamped)
DV_PARAM= ( WING, 1, 0, 0, 0.0, 0.0, 1.0 )
DV_VALUE= 1.0

% -------------------- FREE-FORM DEFORMATION PARAMETERS -----------------------%
FFD_TOLERANCE= 1E-10
FFD_ITERATIONS= 500
FFD_DEFINITION= (WING, -0.05, -0.05, -0.1, 1.05, -0.05, -0.1, 1.25, 1.7, -0.1, 0.72, 1.7, -0.1, -0.05, -0.05, 0.15, 1.05, -0.05, 0.15, 1.25, 1.7, 0.15, 0.72, 1.7, 0.15)
%FFD_DEFINITION= (WING,-0.0403, 0, -0.04836, 0.8463, 0, -0.04836, 1.209, 1.2896, -0.04836, 0.6851, 1.2896, -0.04836, -0.0403, 0, 0.04836, 0.8463,0, 0.04836,  1.209,1.2896, 0.04836, 0.6851, 1.2896, 0.04836)
FFD_DEGREE= (8, 10, 1)
FFD_CONTINUITY=2ND_DERIVATIVE
FFD_SYMMETRY_PLANE= YES

% ------------------------ GRID DEFORMATION PARAMETERS ------------------------%
%
% Linear solver or smoother for implicit formulations (FGMRES, RESTARTED_FGMRES, BCGSTAB)
DEFORM_LINEAR_SOLVER= FGMRES
%
% Number of smoothing iterations for mesh deformation
DEFORM_LINEAR_SOLVER_ITER= 500
%
% Minimum residual criteria for the linear solver convergence of grid deformation
DEFORM_LINEAR_SOLVER_ERROR= 1E-14
%
% Type of element stiffness imposed for FEA mesh deformation (INVERSE_VOLUME, 
%                                          WALL_DISTANCE, CONSTANT_STIFFNESS)
DEFORM_STIFFNESS_TYPE= WALL_DISTANCE

DEFORM_NONLINEAR_ITER= 1
DEFORM_CONSOLE_OUTPUT= NO
DEFORM_LINEAR_SOLVER_PREC= ILU
% --------------------- OPTIMAL SHAPE DESIGN DEFINITION -----------------------%
OPT_OBJECTIVE= DRAG
OPT_CONSTRAINT= (LIFT > 0.3) ; (STATION1_THICKNESS > 0.07) * 0.1; (STATION2_THICKNESS > 0.07) * 0.1; (STATION3_THICKNESS > 0.07) * 0.1; (STATION4_THICKNESS > 0.07) *0.1; (STATION5_THICKNESS > 0.07) * 0.1
OPT_ITERATIONS= 30
OPT_GRADIENT_FACTOR= 1E-5
OPT_RELAX_FACTOR= 1E3
OPT_ACCURACY= 1E-10
OPT_BOUND_UPPER= 1000000000
OPT_BOUND_LOWER= -1000000000
DEFINITION_DV= ( 11, 1.0 | flowbound, feabound, clamped | WING, 0, 0, 0, 0.0, 0.0, 1.0 ); ( 11, 1.0 | flowbound, feabound, clamped | WING, 1, 0, 0, 0.0, 0.0, 1.0 ); ( 11, 1.0 | flowbound, feabound, clamped | WING, 2, 0, 0, 0.0, 0.0, 1.0 ); ( 11, 1.0 | flowbound, feabound, clamped | WING, 3, 0, 0, 0.0, 0.0, 1.0 ); ( 11, 1.0 | flowbound, feabound, clamped | WING, 4, 0, 0, 0.0, 0.0, 1.0 ); ( 11, 1.0 | flowbound, feabound, clamped | WING, 5, 0, 0, 0.0, 0.0, 1.0 ); ( 11, 1.0 | flowbound, feabound, clamped | WING, 6, 0, 0, 0.0, 0.0, 1.0 ); ( 11, 1.0 | flowbound, feabound, clamped | WING, 7, 0, 0, 0.0, 0.0, 1.0 ); ( 11, 1.0 | flowbound, feabound, clamped | WING, 8, 0, 0, 0.0, 0.0, 1.0 ); ( 11, 1.0 | flowbound, feabound, clamped | WING, 0, 1, 0, 0.0, 0.0, 1.0 ); ( 11, 1.0 | flowbound, feabound, clamped | WING, 1, 1, 0, 0.0, 0.0, 1.0 ); ( 11, 1.0 | flowbound, feabound, clamped | WING, 2, 1, 0, 0.0, 0.0, 1.0 ); ( 11, 1.0 | flowbound, feabound, clamped | WING, 3, 1, 0, 0.0, 0.0, 1.0 ); ( 11, 1.0 | flowbound, feabound, clamped | WING, 4, 1, 0, 0.0, 0.0, 1.0 ); ( 11, 1.0 | flowbound, feabound, clamped | WING, 5, 1, 0, 0.0, 0.0, 1.0 ); ( 11, 1.0 | flowbound, feabound, clamped | WING, 6, 1, 0, 0.0, 0.0, 1.0 ); ( 11, 1.0 | flowbound, feabound, clamped | WING, 7, 1, 0, 0.0, 0.0, 1.0 ); ( 11, 1.0 | flowbound, feabound, clamped | WING, 8, 1, 0, 0.0, 0.0, 1.0 ); ( 11, 1.0 | flowbound, feabound, clamped | WING, 0, 2, 0, 0.0, 0.0, 1.0 ); ( 11, 1.0 | flowbound, feabound, clamped | WING, 1, 2, 0, 0.0, 0.0, 1.0 ); ( 11, 1.0 | flowbound, feabound, clamped | WING, 2, 2, 0, 0.0, 0.0, 1.0 ); ( 11, 1.0 | flowbound, feabound, clamped | WING, 3, 2, 0, 0.0, 0.0, 1.0 ); ( 11, 1.0 | flowbound, feabound, clamped | WING, 4, 2, 0, 0.0, 0.0, 1.0 ); ( 11, 1.0 | flowbound, feabound, clamped | WING, 5, 2, 0, 0.0, 0.0, 1.0 ); ( 11, 1.0 | flowbound, feabound, clamped | WING, 6, 2, 0, 0.0, 0.0, 1.0 ); ( 11, 1.0 | flowbound, feabound, clamped | WING, 7, 2, 0, 0.0, 0.0, 1.0 ); ( 11, 1.0 | flowbound, feabound, clamped | WING, 8, 2, 0, 0.0, 0.0, 1.0 ); ( 11, 1.0 | flowbound, feabound, clamped | WING, 0, 3, 0, 0.0, 0.0, 1.0 ); ( 11, 1.0 | flowbound, feabound, clamped | WING, 1, 3, 0, 0.0, 0.0, 1.0 ); ( 11, 1.0 | flowbound, feabound, clamped | WING, 2, 3, 0, 0.0, 0.0, 1.0 ); ( 11, 1.0 | flowbound, feabound, clamped | WING, 3, 3, 0, 0.0, 0.0, 1.0 ); ( 11, 1.0 | flowbound, feabound, clamped | WING, 4, 3, 0, 0.0, 0.0, 1.0 ); ( 11, 1.0 | flowbound, feabound, clamped | WING, 5, 3, 0, 0.0, 0.0, 1.0 ); ( 11, 1.0 | flowbound, feabound, clamped | WING, 6, 3, 0, 0.0, 0.0, 1.0 ); ( 11, 1.0 | flowbound, feabound, clamped | WING, 7, 3, 0, 0.0, 0.0, 1.0 ); ( 11, 1.0 | flowbound, feabound, clamped | WING, 8, 3, 0, 0.0, 0.0, 1.0 ); ( 11, 1.0 | flowbound, feabound, clamped | WING, 0, 4, 0, 0.0, 0.0, 1.0 ); ( 11, 1.0 | flowbound, feabound, clamped | WING, 1, 4, 0, 0.0, 0.0, 1.0 ); ( 11, 1.0 | flowbound, feabound, clamped | WING, 2, 4, 0, 0.0, 0.0, 1.0 ); ( 11, 1.0 | flowbound, feabound, clamped | WING, 3, 4, 0, 0.0, 0.0, 1.0 ); ( 11, 1.0 | flowbound, feabound, clamped | WING, 4, 4, 0, 0.0, 0.0, 1.0 ); ( 11, 1.0 | flowbound, feabound, clamped | WING, 5, 4, 0, 0.0, 0.0, 1.0 ); ( 11, 1.0 | flowbound, feabound, clamped | WING, 6, 4, 0, 0.0, 0.0, 1.0 ); ( 11, 1.0 | flowbound, feabound, clamped | WING, 7, 4, 0, 0.0, 0.0, 1.0 ); ( 11, 1.0 | flowbound, feabound, clamped | WING, 8, 4, 0, 0.0, 0.0, 1.0 ); ( 11, 1.0 | flowbound, feabound, clamped | WING, 0, 5, 0, 0.0, 0.0, 1.0 ); ( 11, 1.0 | flowbound, feabound, clamped | WING, 1, 5, 0, 0.0, 0.0, 1.0 ); ( 11, 1.0 | flowbound, feabound, clamped | WING, 2, 5, 0, 0.0, 0.0, 1.0 ); ( 11, 1.0 | flowbound, feabound, clamped | WING, 3, 5, 0, 0.0, 0.0, 1.0 ); ( 11, 1.0 | flowbound, feabound, clamped | WING, 4, 5, 0, 0.0, 0.0, 1.0 ); ( 11, 1.0 | flowbound, feabound, clamped | WING, 5, 5, 0, 0.0, 0.0, 1.0 ); ( 11, 1.0 | flowbound, feabound, clamped | WING, 6, 5, 0, 0.0, 0.0, 1.0 ); ( 11, 1.0 | flowbound, feabound, clamped | WING, 7, 5, 0, 0.0, 0.0, 1.0 ); ( 11, 1.0 | flowbound, feabound, clamped | WING, 8, 5, 0, 0.0, 0.0, 1.0 ); ( 11, 1.0 | flowbound, feabound, clamped | WING, 0, 6, 0, 0.0, 0.0, 1.0 ); ( 11, 1.0 | flowbound, feabound, clamped | WING, 1, 6, 0, 0.0, 0.0, 1.0 ); ( 11, 1.0 | flowbound, feabound, clamped | WING, 2, 6, 0, 0.0, 0.0, 1.0 ); ( 11, 1.0 | flowbound, feabound, clamped | WING, 3, 6, 0, 0.0, 0.0, 1.0 ); ( 11, 1.0 | flowbound, feabound, clamped | WING, 4, 6, 0, 0.0, 0.0, 1.0 ); ( 11, 1.0 | flowbound, feabound, clamped | WING, 5, 6, 0, 0.0, 0.0, 1.0 ); ( 11, 1.0 | flowbound, feabound, clamped | WING, 6, 6, 0, 0.0, 0.0, 1.0 ); ( 11, 1.0 | flowbound, feabound, clamped | WING, 7, 6, 0, 0.0, 0.0, 1.0 ); ( 11, 1.0 | flowbound, feabound, clamped | WING, 8, 6, 0, 0.0, 0.0, 1.0 ); ( 11, 1.0 | flowbound, feabound, clamped | WING, 0, 7, 0, 0.0, 0.0, 1.0 ); ( 11, 1.0 | flowbound, feabound, clamped | WING, 1, 7, 0, 0.0, 0.0, 1.0 ); ( 11, 1.0 | flowbound, feabound, clamped | WING, 2, 7, 0, 0.0, 0.0, 1.0 ); ( 11, 1.0 | flowbound, feabound, clamped | WING, 3, 7, 0, 0.0, 0.0, 1.0 ); ( 11, 1.0 | flowbound, feabound, clamped | WING, 4, 7, 0, 0.0, 0.0, 1.0 ); ( 11, 1.0 | flowbound, feabound, clamped | WING, 5, 7, 0, 0.0, 0.0, 1.0 ); ( 11, 1.0 | flowbound, feabound, clamped | WING, 6, 7, 0, 0.0, 0.0, 1.0 ); ( 11, 1.0 | flowbound, feabound, clamped | WING, 7, 7, 0, 0.0, 0.0, 1.0 ); ( 11, 1.0 | flowbound, feabound, clamped | WING, 8, 7, 0, 0.0, 0.0, 1.0 ); ( 11, 1.0 | flowbound, feabound, clamped | WING, 0, 8, 0, 0.0, 0.0, 1.0 ); ( 11, 1.0 | flowbound, feabound, clamped | WING, 1, 8, 0, 0.0, 0.0, 1.0 ); ( 11, 1.0 | flowbound, feabound, clamped | WING, 2, 8, 0, 0.0, 0.0, 1.0 ); ( 11, 1.0 | flowbound, feabound, clamped | WING, 3, 8, 0, 0.0, 0.0, 1.0 ); ( 11, 1.0 | flowbound, feabound, clamped | WING, 4, 8, 0, 0.0, 0.0, 1.0 ); ( 11, 1.0 | flowbound, feabound, clamped | WING, 5, 8, 0, 0.0, 0.0, 1.0 ); ( 11, 1.0 | flowbound, feabound, clamped | WING, 6, 8, 0, 0.0, 0.0, 1.0 ); ( 11, 1.0 | flowbound, feabound, clamped | WING, 7, 8, 0, 0.0, 0.0, 1.0 ); ( 11, 1.0 | flowbound, feabound, clamped | WING, 8, 8, 0, 0.0, 0.0, 1.0 ); ( 11, 1.0 | flowbound, feabound, clamped | WING, 0, 9, 0, 0.0, 0.0, 1.0 ); ( 11, 1.0 | flowbound, feabound, clamped | WING, 1, 9, 0, 0.0, 0.0, 1.0 ); ( 11, 1.0 | flowbound, feabound, clamped | WING, 2, 9, 0, 0.0, 0.0, 1.0 ); ( 11, 1.0 | flowbound, feabound, clamped | WING, 3, 9, 0, 0.0, 0.0, 1.0 ); ( 11, 1.0 | flowbound, feabound, clamped | WING, 4, 9, 0, 0.0, 0.0, 1.0 ); ( 11, 1.0 | flowbound, feabound, clamped | WING, 5, 9, 0, 0.0, 0.0, 1.0 ); ( 11, 1.0 | flowbound, feabound, clamped | WING, 6, 9, 0, 0.0, 0.0, 1.0 ); ( 11, 1.0 | flowbound, feabound, clamped | WING, 7, 9, 0, 0.0, 0.0, 1.0 ); ( 11, 1.0 | flowbound, feabound, clamped | WING, 8, 9, 0, 0.0, 0.0, 1.0 ); ( 11, 1.0 | flowbound, feabound, clamped | WING, 0, 10, 0, 0.0, 0.0, 1.0 ); ( 11, 1.0 | flowbound, feabound, clamped | WING, 1, 10, 0, 0.0, 0.0, 1.0 ); ( 11, 1.0 | flowbound, feabound, clamped | WING, 2, 10, 0, 0.0, 0.0, 1.0 ); ( 11, 1.0 | flowbound, feabound, clamped | WING, 3, 10, 0, 0.0, 0.0, 1.0 ); ( 11, 1.0 | flowbound, feabound, clamped | WING, 4, 10, 0, 0.0, 0.0, 1.0 ); ( 11, 1.0 | flowbound, feabound, clamped | WING, 5, 10, 0, 0.0, 0.0, 1.0 ); ( 11, 1.0 | flowbound, feabound, clamped | WING, 6, 10, 0, 0.0, 0.0, 1.0 ); ( 11, 1.0 | flowbound, feabound, clamped | WING, 7, 10, 0, 0.0, 0.0, 1.0 ); ( 11, 1.0 | flowbound, feabound, clamped | WING, 8, 10, 0, 0.0, 0.0, 1.0 ); ( 11, 1.0 | flowbound, feabound, clamped | WING, 0, 0, 1, 0.0, 0.0, 1.0 ); ( 11, 1.0 | flowbound, feabound, clamped | WING, 1, 0, 1, 0.0, 0.0, 1.0 ); ( 11, 1.0 | flowbound, feabound, clamped | WING, 2, 0, 1, 0.0, 0.0, 1.0 ); ( 11, 1.0 | flowbound, feabound, clamped | WING, 3, 0, 1, 0.0, 0.0, 1.0 ); ( 11, 1.0 | flowbound, feabound, clamped | WING, 4, 0, 1, 0.0, 0.0, 1.0 ); ( 11, 1.0 | flowbound, feabound, clamped | WING, 5, 0, 1, 0.0, 0.0, 1.0 ); ( 11, 1.0 | flowbound, feabound, clamped | WING, 6, 0, 1, 0.0, 0.0, 1.0 ); ( 11, 1.0 | flowbound, feabound, clamped | WING, 7, 0, 1, 0.0, 0.0, 1.0 ); ( 11, 1.0 | flowbound, feabound, clamped | WING, 8, 0, 1, 0.0, 0.0, 1.0 ); ( 11, 1.0 | flowbound, feabound, clamped | WING, 0, 1, 1, 0.0, 0.0, 1.0 ); ( 11, 1.0 | flowbound, feabound, clamped | WING, 1, 1, 1, 0.0, 0.0, 1.0 ); ( 11, 1.0 | flowbound, feabound, clamped | WING, 2, 1, 1, 0.0, 0.0, 1.0 ); ( 11, 1.0 | flowbound, feabound, clamped | WING, 3, 1, 1, 0.0, 0.0, 1.0 ); ( 11, 1.0 | flowbound, feabound, clamped | WING, 4, 1, 1, 0.0, 0.0, 1.0 ); ( 11, 1.0 | flowbound, feabound, clamped | WING, 5, 1, 1, 0.0, 0.0, 1.0 ); ( 11, 1.0 | flowbound, feabound, clamped | WING, 6, 1, 1, 0.0, 0.0, 1.0 ); ( 11, 1.0 | flowbound, feabound, clamped | WING, 7, 1, 1, 0.0, 0.0, 1.0 ); ( 11, 1.0 | flowbound, feabound, clamped | WING, 8, 1, 1, 0.0, 0.0, 1.0 ); ( 11, 1.0 | flowbound, feabound, clamped | WING, 0, 2, 1, 0.0, 0.0, 1.0 ); ( 11, 1.0 | flowbound, feabound, clamped | WING, 1, 2, 1, 0.0, 0.0, 1.0 ); ( 11, 1.0 | flowbound, feabound, clamped | WING, 2, 2, 1, 0.0, 0.0, 1.0 ); ( 11, 1.0 | flowbound, feabound, clamped | WING, 3, 2, 1, 0.0, 0.0, 1.0 ); ( 11, 1.0 | flowbound, feabound, clamped | WING, 4, 2, 1, 0.0, 0.0, 1.0 ); ( 11, 1.0 | flowbound, feabound, clamped | WING, 5, 2, 1, 0.0, 0.0, 1.0 ); ( 11, 1.0 | flowbound, feabound, clamped | WING, 6, 2, 1, 0.0, 0.0, 1.0 ); ( 11, 1.0 | flowbound, feabound, clamped | WING, 7, 2, 1, 0.0, 0.0, 1.0 ); ( 11, 1.0 | flowbound, feabound, clamped | WING, 8, 2, 1, 0.0, 0.0, 1.0 ); ( 11, 1.0 | flowbound, feabound, clamped | WING, 0, 3, 1, 0.0, 0.0, 1.0 ); ( 11, 1.0 | flowbound, feabound, clamped | WING, 1, 3, 1, 0.0, 0.0, 1.0 ); ( 11, 1.0 | flowbound, feabound, clamped | WING, 2, 3, 1, 0.0, 0.0, 1.0 ); ( 11, 1.0 | flowbound, feabound, clamped | WING, 3, 3, 1, 0.0, 0.0, 1.0 ); ( 11, 1.0 | flowbound, feabound, clamped | WING, 4, 3, 1, 0.0, 0.0, 1.0 ); ( 11, 1.0 | flowbound, feabound, clamped | WING, 5, 3, 1, 0.0, 0.0, 1.0 ); ( 11, 1.0 | flowbound, feabound, clamped | WING, 6, 3, 1, 0.0, 0.0, 1.0 ); ( 11, 1.0 | flowbound, feabound, clamped | WING, 7, 3, 1, 0.0, 0.0, 1.0 ); ( 11, 1.0 | flowbound, feabound, clamped | WING, 8, 3, 1, 0.0, 0.0, 1.0 ); ( 11, 1.0 | flowbound, feabound, clamped | WING, 0, 4, 1, 0.0, 0.0, 1.0 ); ( 11, 1.0 | flowbound, feabound, clamped | WING, 1, 4, 1, 0.0, 0.0, 1.0 ); ( 11, 1.0 | flowbound, feabound, clamped | WING, 2, 4, 1, 0.0, 0.0, 1.0 ); ( 11, 1.0 | flowbound, feabound, clamped | WING, 3, 4, 1, 0.0, 0.0, 1.0 ); ( 11, 1.0 | flowbound, feabound, clamped | WING, 4, 4, 1, 0.0, 0.0, 1.0 ); ( 11, 1.0 | flowbound, feabound, clamped | WING, 5, 4, 1, 0.0, 0.0, 1.0 ); ( 11, 1.0 | flowbound, feabound, clamped | WING, 6, 4, 1, 0.0, 0.0, 1.0 ); ( 11, 1.0 | flowbound, feabound, clamped | WING, 7, 4, 1, 0.0, 0.0, 1.0 ); ( 11, 1.0 | flowbound, feabound, clamped | WING, 8, 4, 1, 0.0, 0.0, 1.0 ); ( 11, 1.0 | flowbound, feabound, clamped | WING, 0, 5, 1, 0.0, 0.0, 1.0 ); ( 11, 1.0 | flowbound, feabound, clamped | WING, 1, 5, 1, 0.0, 0.0, 1.0 ); ( 11, 1.0 | flowbound, feabound, clamped | WING, 2, 5, 1, 0.0, 0.0, 1.0 ); ( 11, 1.0 | flowbound, feabound, clamped | WING, 3, 5, 1, 0.0, 0.0, 1.0 ); ( 11, 1.0 | flowbound, feabound, clamped | WING, 4, 5, 1, 0.0, 0.0, 1.0 ); ( 11, 1.0 | flowbound, feabound, clamped | WING, 5, 5, 1, 0.0, 0.0, 1.0 ); ( 11, 1.0 | flowbound, feabound, clamped | WING, 6, 5, 1, 0.0, 0.0, 1.0 ); ( 11, 1.0 | flowbound, feabound, clamped | WING, 7, 5, 1, 0.0, 0.0, 1.0 ); ( 11, 1.0 | flowbound, feabound, clamped | WING, 8, 5, 1, 0.0, 0.0, 1.0 ); ( 11, 1.0 | flowbound, feabound, clamped | WING, 0, 6, 1, 0.0, 0.0, 1.0 ); ( 11, 1.0 | flowbound, feabound, clamped | WING, 1, 6, 1, 0.0, 0.0, 1.0 ); ( 11, 1.0 | flowbound, feabound, clamped | WING, 2, 6, 1, 0.0, 0.0, 1.0 ); ( 11, 1.0 | flowbound, feabound, clamped | WING, 3, 6, 1, 0.0, 0.0, 1.0 ); ( 11, 1.0 | flowbound, feabound, clamped | WING, 4, 6, 1, 0.0, 0.0, 1.0 ); ( 11, 1.0 | flowbound, feabound, clamped | WING, 5, 6, 1, 0.0, 0.0, 1.0 ); ( 11, 1.0 | flowbound, feabound, clamped | WING, 6, 6, 1, 0.0, 0.0, 1.0 ); ( 11, 1.0 | flowbound, feabound, clamped | WING, 7, 6, 1, 0.0, 0.0, 1.0 ); ( 11, 1.0 | flowbound, feabound, clamped | WING, 8, 6, 1, 0.0, 0.0, 1.0 ); ( 11, 1.0 | flowbound, feabound, clamped | WING, 0, 7, 1, 0.0, 0.0, 1.0 ); ( 11, 1.0 | flowbound, feabound, clamped | WING, 1, 7, 1, 0.0, 0.0, 1.0 ); ( 11, 1.0 | flowbound, feabound, clamped | WING, 2, 7, 1, 0.0, 0.0, 1.0 ); ( 11, 1.0 | flowbound, feabound, clamped | WING, 3, 7, 1, 0.0, 0.0, 1.0 ); ( 11, 1.0 | flowbound, feabound, clamped | WING, 4, 7, 1, 0.0, 0.0, 1.0 ); ( 11, 1.0 | flowbound, feabound, clamped | WING, 5, 7, 1, 0.0, 0.0, 1.0 ); ( 11, 1.0 | flowbound, feabound, clamped | WING, 6, 7, 1, 0.0, 0.0, 1.0 ); ( 11, 1.0 | flowbound, feabound, clamped | WING, 7, 7, 1, 0.0, 0.0, 1.0 ); ( 11, 1.0 | flowbound, feabound, clamped | WING, 8, 7, 1, 0.0, 0.0, 1.0 ); ( 11, 1.0 | flowbound, feabound, clamped | WING, 0, 8, 1, 0.0, 0.0, 1.0 ); ( 11, 1.0 | flowbound, feabound, clamped | WING, 1, 8, 1, 0.0, 0.0, 1.0 ); ( 11, 1.0 | flowbound, feabound, clamped | WING, 2, 8, 1, 0.0, 0.0, 1.0 ); ( 11, 1.0 | flowbound, feabound, clamped | WING, 3, 8, 1, 0.0, 0.0, 1.0 ); ( 11, 1.0 | flowbound, feabound, clamped | WING, 4, 8, 1, 0.0, 0.0, 1.0 ); ( 11, 1.0 | flowbound, feabound, clamped | WING, 5, 8, 1, 0.0, 0.0, 1.0 ); ( 11, 1.0 | flowbound, feabound, clamped | WING, 6, 8, 1, 0.0, 0.0, 1.0 ); ( 11, 1.0 | flowbound, feabound, clamped | WING, 7, 8, 1, 0.0, 0.0, 1.0 ); ( 11, 1.0 | flowbound, feabound, clamped | WING, 8, 8, 1, 0.0, 0.0, 1.0 ); ( 11, 1.0 | flowbound, feabound, clamped | WING, 0, 9, 1, 0.0, 0.0, 1.0 ); ( 11, 1.0 | flowbound, feabound, clamped | WING, 1, 9, 1, 0.0, 0.0, 1.0 ); ( 11, 1.0 | flowbound, feabound, clamped | WING, 2, 9, 1, 0.0, 0.0, 1.0 ); ( 11, 1.0 | flowbound, feabound, clamped | WING, 3, 9, 1, 0.0, 0.0, 1.0 ); ( 11, 1.0 | flowbound, feabound, clamped | WING, 4, 9, 1, 0.0, 0.0, 1.0 ); ( 11, 1.0 | flowbound, feabound, clamped | WING, 5, 9, 1, 0.0, 0.0, 1.0 ); ( 11, 1.0 | flowbound, feabound, clamped | WING, 6, 9, 1, 0.0, 0.0, 1.0 ); ( 11, 1.0 | flowbound, feabound, clamped | WING, 7, 9, 1, 0.0, 0.0, 1.0 ); ( 11, 1.0 | flowbound, feabound, clamped | WING, 8, 9, 1, 0.0, 0.0, 1.0 ); ( 11, 1.0 | flowbound, feabound, clamped | WING, 0, 10, 1, 0.0, 0.0, 1.0 ); ( 11, 1.0 | flowbound, feabound, clamped | WING, 1, 10, 1, 0.0, 0.0, 1.0 ); ( 11, 1.0 | flowbound, feabound, clamped | WING, 2, 10, 1, 0.0, 0.0, 1.0 ); ( 11, 1.0 | flowbound, feabound, clamped | WING, 3, 10, 1, 0.0, 0.0, 1.0 ); ( 11, 1.0 | flowbound, feabound, clamped | WING, 4, 10, 1, 0.0, 0.0, 1.0 ); ( 11, 1.0 | flowbound, feabound, clamped | WING, 5, 10, 1, 0.0, 0.0, 1.0 ); ( 11, 1.0 | flowbound, feabound, clamped | WING, 6, 10, 1, 0.0, 0.0, 1.0 ); ( 11, 1.0 | flowbound, feabound, clamped | WING, 7, 10, 1, 0.0, 0.0, 1.0 ); ( 11, 1.0 | flowbound, feabound, clamped | WING, 8, 10, 1, 0.0, 0.0, 1.0 )
